version 2
run General-0-20140307-08:59:44-12660
attr configname General
attr datetime 20140307-08:59:44
attr experiment General
attr inifile omnetpp.ini
attr iterationvars ""
attr iterationvars2 $repetition=0
attr measurement ""
attr network efnoc.fattree.S_16.Robot.mcsl_rtp
attr processid 12660
attr repetition 0
attr replication #0
attr resultdir results
attr runnumber 0
attr seedset 0

scalar mcsl_rtp.core0.source 	"#sent 0" 	54112
scalar mcsl_rtp.core0.source 	"#sent 1" 	45952
scalar mcsl_rtp.core0.source 	"#sent 2" 	49872
scalar mcsl_rtp.core0.source 	"#sent 3" 	22376
scalar mcsl_rtp.core0.source 	"#sent 4" 	46272
scalar mcsl_rtp.core0.source 	"#sent 5" 	92288
scalar mcsl_rtp.core0.source 	"#sent 6" 	24800
scalar mcsl_rtp.core0.source 	"#sent 7" 	22848
scalar mcsl_rtp.core0.source 	"#sent 8" 	0
scalar mcsl_rtp.core0.source 	"#sent 9" 	21024
scalar mcsl_rtp.core0.source 	"#sent 10" 	37976
scalar mcsl_rtp.core0.source 	"#sent 11" 	29192
scalar mcsl_rtp.core0.source 	"#sent 12" 	43240
scalar mcsl_rtp.core0.source 	"#sent 13" 	0
scalar mcsl_rtp.core0.source 	"#sent 14" 	0
scalar mcsl_rtp.core0.source 	"#sent 15" 	30416
scalar mcsl_rtp.core0.source 	"#sent 16" 	48352
scalar mcsl_rtp.core0.source 	"#sent 17" 	26112
scalar mcsl_rtp.core0.source 	"#sent 18" 	17120
scalar mcsl_rtp.core0.source 	"#sent 19" 	19416
scalar mcsl_rtp.core0.source 	"#sent 20" 	33952
scalar mcsl_rtp.core0.source 	"#sent 21" 	40144
scalar mcsl_rtp.core0.source 	"#sent 22" 	13128
scalar mcsl_rtp.core0.source 	"#sent 23" 	10016
scalar mcsl_rtp.core0.source 	"#sent 24" 	22968
scalar mcsl_rtp.core0.source 	"#sent 25" 	24112
scalar mcsl_rtp.core0.source 	"#sent 26" 	19472
scalar mcsl_rtp.core0.source 	"#sent 27" 	26888
scalar mcsl_rtp.core0.source 	"#sent 28" 	10424
scalar mcsl_rtp.core0.source 	"#sent 29" 	9976
scalar mcsl_rtp.core0.source 	"#sent 30" 	0
scalar mcsl_rtp.core0.source 	"#sent 31" 	6488
scalar mcsl_rtp.core0.source 	"#sent 32" 	19808
scalar mcsl_rtp.core0.source 	"#sent 33" 	32048
scalar mcsl_rtp.core0.source 	"#sent 34" 	22504
scalar mcsl_rtp.core0.source 	"#sent 35" 	31064
scalar mcsl_rtp.core0.source 	"#sent 36" 	0
scalar mcsl_rtp.core0.source 	"#sent 37" 	0
scalar mcsl_rtp.core0.source 	"#sent 38" 	0
scalar mcsl_rtp.core0.source 	"#sent 39" 	0
scalar mcsl_rtp.core0.source 	"#sent 40" 	26192
scalar mcsl_rtp.core0.source 	"#sent 41" 	13368
scalar mcsl_rtp.core0.source 	"#sent 42" 	10424
scalar mcsl_rtp.core0.source 	"#sent 43" 	16464
scalar mcsl_rtp.core0.source 	"#sent 44" 	0
scalar mcsl_rtp.core0.source 	"#sent 45" 	0
scalar mcsl_rtp.core0.source 	"#sent 46" 	0
scalar mcsl_rtp.core0.source 	"#sent 47" 	0
scalar mcsl_rtp.core0.source 	"#sent 48" 	26768
scalar mcsl_rtp.core0.source 	"#sent 49" 	19616
scalar mcsl_rtp.core0.source 	"#sent 50" 	6864
scalar mcsl_rtp.core0.source 	"#sent 51" 	12896
scalar mcsl_rtp.core0.source 	"#sent 52" 	19456
scalar mcsl_rtp.core0.source 	"#sent 53" 	18656
scalar mcsl_rtp.core0.source 	"#sent 54" 	13312
scalar mcsl_rtp.core0.source 	"#sent 55" 	23368
scalar mcsl_rtp.core0.source 	"#sent 56" 	19760
scalar mcsl_rtp.core0.source 	"#sent 57" 	16960
scalar mcsl_rtp.core0.source 	"#sent 58" 	33512
scalar mcsl_rtp.core0.source 	"#sent 59" 	6160
scalar mcsl_rtp.core0.source 	"#sent 60" 	0
scalar mcsl_rtp.core0.source 	"#sent 61" 	6232
scalar mcsl_rtp.core0.source 	"#sent 62" 	0
scalar mcsl_rtp.core0.source 	"#sent 63" 	9728
scalar mcsl_rtp.core0.source 	"#sent 64" 	12592
scalar mcsl_rtp.core0.source 	"#sent 65" 	6112
scalar mcsl_rtp.core0.source 	"#sent 66" 	5448
scalar mcsl_rtp.core0.source 	"#sent 67" 	3728
scalar mcsl_rtp.core0.source 	"#sent 68" 	0
scalar mcsl_rtp.core0.source 	"#sent 69" 	0
scalar mcsl_rtp.core0.source 	"#sent 70" 	0
scalar mcsl_rtp.core0.source 	"#sent 71" 	0
scalar mcsl_rtp.core0.source 	"#sent 72" 	0
scalar mcsl_rtp.core0.source 	"#sent 73" 	9352
scalar mcsl_rtp.core0.source 	"#sent 74" 	0
scalar mcsl_rtp.core0.source 	"#sent 75" 	0
scalar mcsl_rtp.core0.source 	"#sent 76" 	9176
scalar mcsl_rtp.core0.source 	"#sent 77" 	0
scalar mcsl_rtp.core0.source 	"#sent 78" 	0
scalar mcsl_rtp.core0.source 	"#sent 79" 	0
scalar mcsl_rtp.core0.source 	"#sent 80" 	43336
scalar mcsl_rtp.core0.source 	"#sent 81" 	13184
scalar mcsl_rtp.core0.source 	"#sent 82" 	0
scalar mcsl_rtp.core0.source 	"#sent 83" 	9352
scalar mcsl_rtp.core0.source 	"#sent 84" 	0
scalar mcsl_rtp.core0.source 	"#sent 85" 	0
scalar mcsl_rtp.core0.source 	"#sent 86" 	0
scalar mcsl_rtp.core0.source 	"#sent 87" 	0
scalar mcsl_rtp.core0.source 	"#sent 88" 	0
scalar mcsl_rtp.core0.source 	"#sent 89" 	15960
scalar mcsl_rtp.core0.source 	"#sent 90" 	9176
scalar mcsl_rtp.core0.source 	"#sent 91" 	0
scalar mcsl_rtp.core0.source 	"#sent 92" 	0
scalar mcsl_rtp.core0.source 	"#sent 93" 	0
scalar mcsl_rtp.core0.source 	"#sent 94" 	0
scalar mcsl_rtp.core0.source 	"#sent 95" 	0
scalar mcsl_rtp.core0.source 	"#sent 96" 	0
scalar mcsl_rtp.core0.source 	"#sent 97" 	33984
scalar mcsl_rtp.core0.source 	"#sent 98" 	33984
scalar mcsl_rtp.core0.source 	"#sent 99" 	0
scalar mcsl_rtp.core0.source 	"#sent 100" 	13184
scalar mcsl_rtp.core0.source 	"#sent 101" 	0
scalar mcsl_rtp.core0.source 	"#sent 102" 	0
scalar mcsl_rtp.core0.source 	"#sent 103" 	13184
scalar mcsl_rtp.core0.source 	"#sent 104" 	0
scalar mcsl_rtp.core0.source 	"#sent 105" 	0
scalar mcsl_rtp.core0.source 	"#sent 106" 	0
scalar mcsl_rtp.core0.source 	"#sent 107" 	0
scalar mcsl_rtp.core0.source 	"#sent 108" 	0
scalar mcsl_rtp.core0.source 	"#sent 109" 	0
scalar mcsl_rtp.core0.source 	"#sent 110" 	0
scalar mcsl_rtp.core0.source 	"#sent 111" 	0
scalar mcsl_rtp.core0.source 	"#sent 112" 	0
scalar mcsl_rtp.core0.source 	"#sent 113" 	2944
scalar mcsl_rtp.core0.source 	"#sent 114" 	2944
scalar mcsl_rtp.core0.source 	"#sent 115" 	0
scalar mcsl_rtp.core0.source 	"#sent 116" 	9728
scalar mcsl_rtp.core0.source 	"#sent 117" 	0
scalar mcsl_rtp.core0.source 	"#sent 118" 	0
scalar mcsl_rtp.core0.source 	"#sent 119" 	9728
scalar mcsl_rtp.core0.source 	"#sent 120" 	0
scalar mcsl_rtp.core0.source 	"#sent 121" 	0
scalar mcsl_rtp.core0.source 	"#sent 122" 	0
scalar mcsl_rtp.core0.source 	"#sent 123" 	0
scalar mcsl_rtp.core0.source 	"#sent 124" 	0
scalar mcsl_rtp.core0.source 	"#sent 125" 	0
scalar mcsl_rtp.core0.source 	"#sent 126" 	0
scalar mcsl_rtp.core0.source 	"#sent 127" 	0
scalar mcsl_rtp.core0.sink 	flit-per-vc-0 	45665
scalar mcsl_rtp.core0.sink 	flit-per-vc-1 	0
statistic mcsl_rtp.core0.sink 	SoP-end-to-end-latency-ns
field count 30
field mean 15575.583333333
field stddev 18216.201116647
field sum 467267.5
field sqrsum 16901033395.75
field min 8.499999999999
field max 51195
statistic mcsl_rtp.core0.sink 	SoP-E2E-Latency-Hist
field count 30
field mean 15575.033333333
field stddev 18216.241658785
field sum 467251
field sqrsum 16900562245
field min 8
field max 51194
attr type  int
bin	-INF	0
bin	-25599	0
bin	-25087	0
bin	-24575	0
bin	-24063	0
bin	-23551	0
bin	-23039	0
bin	-22527	0
bin	-22015	0
bin	-21503	0
bin	-20991	0
bin	-20479	0
bin	-19967	0
bin	-19455	0
bin	-18943	0
bin	-18431	0
bin	-17919	0
bin	-17407	0
bin	-16895	0
bin	-16383	0
bin	-15871	0
bin	-15359	0
bin	-14847	0
bin	-14335	0
bin	-13823	0
bin	-13311	0
bin	-12799	0
bin	-12287	0
bin	-11775	0
bin	-11263	0
bin	-10751	0
bin	-10239	0
bin	-9727	0
bin	-9215	0
bin	-8703	0
bin	-8191	0
bin	-7679	0
bin	-7167	0
bin	-6655	0
bin	-6143	0
bin	-5631	0
bin	-5119	0
bin	-4607	0
bin	-4095	0
bin	-3583	0
bin	-3071	0
bin	-2559	0
bin	-2047	0
bin	-1535	0
bin	-1023	0
bin	-511	0
bin	1	13
bin	513	0
bin	1025	0
bin	1537	0
bin	2049	0
bin	2561	0
bin	3073	0
bin	3585	0
bin	4097	0
bin	4609	0
bin	5121	1
bin	5633	1
bin	6145	0
bin	6657	0
bin	7169	0
bin	7681	0
bin	8193	0
bin	8705	0
bin	9217	0
bin	9729	0
bin	10241	1
bin	10753	0
bin	11265	0
bin	11777	0
bin	12289	1
bin	12801	1
bin	13313	0
bin	13825	0
bin	14337	0
bin	14849	0
bin	15361	0
bin	15873	0
bin	16385	0
bin	16897	1
bin	17409	0
bin	17921	0
bin	18433	0
bin	18945	0
bin	19457	0
bin	19969	0
bin	20481	0
bin	20993	0
bin	21505	0
bin	22017	1
bin	22529	1
bin	23041	0
bin	23553	0
bin	24065	0
bin	24577	0
bin	25089	0
bin	25601	0
bin	26113	1
bin	26625	1
bin	27137	0
bin	27649	0
bin	28161	0
bin	28673	0
bin	29185	0
bin	29697	0
bin	30209	1
bin	30721	0
bin	31233	0
bin	31745	0
bin	32257	0
bin	32769	1
bin	33281	0
bin	33793	0
bin	34305	0
bin	34817	0
bin	35329	0
bin	35841	0
bin	36353	0
bin	36865	0
bin	37377	0
bin	37889	0
bin	38401	0
bin	38913	0
bin	39425	0
bin	39937	0
bin	40449	1
bin	40961	0
bin	41473	0
bin	41985	0
bin	42497	0
bin	43009	0
bin	43521	0
bin	44033	0
bin	44545	0
bin	45057	0
bin	45569	0
bin	46081	0
bin	46593	1
bin	47105	0
bin	47617	0
bin	48129	0
bin	48641	0
bin	49153	0
bin	49665	0
bin	50177	1
bin	50689	2
bin	51201	0
bin	51713	0
bin	52225	0
bin	52737	0
bin	53249	0
bin	53761	0
bin	54273	0
bin	54785	0
bin	55297	0
bin	55809	0
bin	56321	0
bin	56833	0
bin	57345	0
bin	57857	0
bin	58369	0
bin	58881	0
bin	59393	0
bin	59905	0
bin	60417	0
bin	60929	0
bin	61441	0
bin	61953	0
bin	62465	0
bin	62977	0
bin	63489	0
bin	64001	0
bin	64513	0
bin	65025	0
bin	65537	0
bin	66049	0
bin	66561	0
bin	67073	0
bin	67585	0
bin	68097	0
bin	68609	0
bin	69121	0
bin	69633	0
bin	70145	0
bin	70657	0
bin	71169	0
bin	71681	0
bin	72193	0
bin	72705	0
bin	73217	0
bin	73729	0
bin	74241	0
bin	74753	0
bin	75265	0
bin	75777	0
bin	76289	0
bin	76801	0
statistic mcsl_rtp.core0.sink 	SoP-network-latency-ns
field count 30
field mean 171335.26666667
field stddev 100612.7015684
field sum 5140058
field sqrsum 1174237763902
field min 17959
field max 386327
statistic mcsl_rtp.core0.sink 	SoP-queueing-time-ns
field count 30
field mean 15557.716666667
field stddev 18215.420367088
field sum 466731.5
field sqrsum 16883521071.75
field min 0.49999999999841
field max 51187
statistic mcsl_rtp.core0.sink 	EoP-end-to-end-latency-ns
field count 31
field mean 37799.516129032
field stddev 22498.713150417
field sum 1171785
field sqrsum 59478668810
field min 2938
field max 78025.5
statistic mcsl_rtp.core0.sink 	EoP-network-latency-ns
field count 31
field mean 188537.58064516
field stddev 104984.34796126
field sum 5844665
field sqrsum 1432590398287
field min 17879
field max 411783
statistic mcsl_rtp.core0.sink 	EoP-queueing-time-ns
field count 31
field mean 37781.967677419
field stddev 22496.970332179
field sum 1171240.998
field sqrsum 59435199752.713
field min 2926
field max 78017.5
statistic mcsl_rtp.core0.sink 	packet-network-latency-ns
field count 0
field mean 0
field stddev -1.#IND
field sum 0
field sqrsum 0
field min 0
field max 0
statistic mcsl_rtp.core0.sink 	network-latency-ns
field count 45665
field mean 182286.96137085
field stddev 104334.62172164
field sum 8324134091
field sqrsum 2.0144663211573e+015
field min 1015
field max 411783
statistic mcsl_rtp.core0.sink 	end-to-end-latency-ns
field count 45665
field mean 29215.697120333
field stddev 20456.517555829
field sum 1334134809
field sqrsum 58086651959854
field min 8.499999999999
field max 78025.5
statistic mcsl_rtp.core0.sink 	number-received-packets
field count 1
field mean 30
field stddev -1.#IND
field sum 30
field sqrsum 900
field min 30
field max 30
scalar mcsl_rtp.core0.sink 	Sink-Total-BW-MBps 	425.23274293331
statistic mcsl_rtp.router0.port[0].sched 	link-utilization
field count 1
field mean 8.7668082094834
field stddev -1.#IND
field sum 8.7668082094834
field sqrsum 76.856926181865
field min 8.7668082094834
field max 8.7668082094834
statistic mcsl_rtp.router0.port[1].sched 	link-utilization
field count 1
field mean 21.261686594405
field stddev -1.#IND
field sum 21.261686594405
field sqrsum 452.05931683872
field min 21.261686594405
field max 21.261686594405
scalar mcsl_rtp.core1.sink 	flit-per-vc-0 	11816
scalar mcsl_rtp.core1.sink 	flit-per-vc-1 	0
statistic mcsl_rtp.core1.sink 	SoP-end-to-end-latency-ns
field count 12
field mean 4681.9166666667
field stddev 9611.4460903118
field sum 56183
field sqrsum 1279222979.5
field min 12.499999999992
field max 27589.5
statistic mcsl_rtp.core1.sink 	SoP-E2E-Latency-Hist
field count 12
field mean 4681.5833333333
field stddev 9611.4607106529
field sum 56179
field sqrsum 1279188617
field min 12
field max 27589
attr type  int
bin	-INF	0
bin	-13799	0
bin	-13523	0
bin	-13247	0
bin	-12971	0
bin	-12695	0
bin	-12419	0
bin	-12143	0
bin	-11867	0
bin	-11591	0
bin	-11315	0
bin	-11039	0
bin	-10763	0
bin	-10487	0
bin	-10211	0
bin	-9935	0
bin	-9659	0
bin	-9383	0
bin	-9107	0
bin	-8831	0
bin	-8555	0
bin	-8279	0
bin	-8003	0
bin	-7727	0
bin	-7451	0
bin	-7175	0
bin	-6899	0
bin	-6623	0
bin	-6347	0
bin	-6071	0
bin	-5795	0
bin	-5519	0
bin	-5243	0
bin	-4967	0
bin	-4691	0
bin	-4415	0
bin	-4139	0
bin	-3863	0
bin	-3587	0
bin	-3311	0
bin	-3035	0
bin	-2759	0
bin	-2483	0
bin	-2207	0
bin	-1931	0
bin	-1655	0
bin	-1379	0
bin	-1103	0
bin	-827	0
bin	-551	0
bin	-275	0
bin	1	9
bin	277	0
bin	553	0
bin	829	0
bin	1105	0
bin	1381	0
bin	1657	0
bin	1933	0
bin	2209	0
bin	2485	0
bin	2761	0
bin	3037	0
bin	3313	0
bin	3589	0
bin	3865	0
bin	4141	0
bin	4417	0
bin	4693	0
bin	4969	0
bin	5245	0
bin	5521	0
bin	5797	0
bin	6073	0
bin	6349	0
bin	6625	1
bin	6901	0
bin	7177	0
bin	7453	0
bin	7729	0
bin	8005	0
bin	8281	0
bin	8557	0
bin	8833	0
bin	9109	0
bin	9385	0
bin	9661	0
bin	9937	0
bin	10213	0
bin	10489	0
bin	10765	0
bin	11041	0
bin	11317	0
bin	11593	0
bin	11869	0
bin	12145	0
bin	12421	0
bin	12697	0
bin	12973	0
bin	13249	0
bin	13525	0
bin	13801	0
bin	14077	0
bin	14353	0
bin	14629	0
bin	14905	0
bin	15181	0
bin	15457	0
bin	15733	0
bin	16009	0
bin	16285	0
bin	16561	0
bin	16837	0
bin	17113	0
bin	17389	0
bin	17665	0
bin	17941	0
bin	18217	0
bin	18493	0
bin	18769	0
bin	19045	0
bin	19321	0
bin	19597	0
bin	19873	0
bin	20149	0
bin	20425	0
bin	20701	0
bin	20977	0
bin	21253	0
bin	21529	1
bin	21805	0
bin	22081	0
bin	22357	0
bin	22633	0
bin	22909	0
bin	23185	0
bin	23461	0
bin	23737	0
bin	24013	0
bin	24289	0
bin	24565	0
bin	24841	0
bin	25117	0
bin	25393	0
bin	25669	0
bin	25945	0
bin	26221	0
bin	26497	0
bin	26773	0
bin	27049	0
bin	27325	1
bin	27601	0
bin	27877	0
bin	28153	0
bin	28429	0
bin	28705	0
bin	28981	0
bin	29257	0
bin	29533	0
bin	29809	0
bin	30085	0
bin	30361	0
bin	30637	0
bin	30913	0
bin	31189	0
bin	31465	0
bin	31741	0
bin	32017	0
bin	32293	0
bin	32569	0
bin	32845	0
bin	33121	0
bin	33397	0
bin	33673	0
bin	33949	0
bin	34225	0
bin	34501	0
bin	34777	0
bin	35053	0
bin	35329	0
bin	35605	0
bin	35881	0
bin	36157	0
bin	36433	0
bin	36709	0
bin	36985	0
bin	37261	0
bin	37537	0
bin	37813	0
bin	38089	0
bin	38365	0
bin	38641	0
bin	38917	0
bin	39193	0
bin	39469	0
bin	39745	0
bin	40021	0
bin	40297	0
bin	40573	0
bin	40849	0
bin	41125	0
bin	41401	0
statistic mcsl_rtp.core1.sink 	SoP-network-latency-ns
field count 12
field mean 132957
field stddev 116499.66808224
field sum 1595484
field sqrsum 361424665484
field min 19343
field max 318727
statistic mcsl_rtp.core1.sink 	SoP-queueing-time-ns
field count 12
field mean 4669.25
field stddev 9611.1169190588
field sum 56031
field sqrsum 1277731999.5
field min 1.0000000000002
field max 27575.5
statistic mcsl_rtp.core1.sink 	EoP-end-to-end-latency-ns
field count 13
field mean 7676.6538461538
field stddev 9051.2042669853
field sum 99796.5
field sqrsum 1749194769.75
field min 2824.5
field max 28810
statistic mcsl_rtp.core1.sink 	EoP-network-latency-ns
field count 13
field mean 126090.38461538
field stddev 119444.45838236
field sum 1639175
field sqrsum 377887949861
field min 3139
field max 321539
statistic mcsl_rtp.core1.sink 	EoP-queueing-time-ns
field count 13
field mean 7664.346
field stddev 9047.1558542528
field sum 99636.498
field sqrsum 1745860943.514
field min 2816.5
field max 28788
statistic mcsl_rtp.core1.sink 	packet-network-latency-ns
field count 0
field mean 0
field stddev -1.#IND
field sum 0
field sqrsum 0
field min 0
field max 0
statistic mcsl_rtp.core1.sink 	network-latency-ns
field count 11816
field mean 135659.06313473
field stddev 106823.59489
field sum 1602947490
field sqrsum 3.5227863297157e+014
field min 1003
field max 321551
statistic mcsl_rtp.core1.sink 	end-to-end-latency-ns
field count 11816
field mean 7009.7266418416
field stddev 8272.654103813
field sum 82826930
field sqrsum 1389174999843.5
field min 7.9999999999946
field max 31237.5
statistic mcsl_rtp.core1.sink 	number-received-packets
field count 1
field mean 12
field stddev -1.#IND
field sum 12
field sqrsum 144
field min 12
field max 12
scalar mcsl_rtp.core1.sink 	Sink-Total-BW-MBps 	110.03066003504
statistic mcsl_rtp.router1.port[0].sched 	link-utilization
field count 1
field mean 10.671117815771
field stddev -1.#IND
field sum 10.671117815771
field sqrsum 113.87275543806
field min 10.671117815771
field max 10.671117815771
statistic mcsl_rtp.router1.port[1].sched 	link-utilization
field count 1
field mean 5.5015457965508
field stddev -1.#IND
field sum 5.5015457965508
field sqrsum 30.267006151546
field min 5.5015457965508
field max 5.5015457965508
scalar mcsl_rtp.core2.sink 	flit-per-vc-0 	15979
scalar mcsl_rtp.core2.sink 	flit-per-vc-1 	0
statistic mcsl_rtp.core2.sink 	SoP-end-to-end-latency-ns
field count 15
field mean 8692.3333333333
field stddev 10677.967914065
field sum 130385
field sqrsum 2729615864.5
field min 21.999999999995
field max 27759.5
statistic mcsl_rtp.core2.sink 	SoP-E2E-Latency-Hist
field count 15
field mean 8691.8666666667
field stddev 10677.933433466
field sum 130378
field sqrsum 2729483866
field min 21
field max 27759
attr type  int
bin	-INF	0
bin	-13910	0
bin	-13632	0
bin	-13354	0
bin	-13076	0
bin	-12798	0
bin	-12520	0
bin	-12242	0
bin	-11964	0
bin	-11686	0
bin	-11408	0
bin	-11130	0
bin	-10852	0
bin	-10574	0
bin	-10296	0
bin	-10018	0
bin	-9740	0
bin	-9462	0
bin	-9184	0
bin	-8906	0
bin	-8628	0
bin	-8350	0
bin	-8072	0
bin	-7794	0
bin	-7516	0
bin	-7238	0
bin	-6960	0
bin	-6682	0
bin	-6404	0
bin	-6126	0
bin	-5848	0
bin	-5570	0
bin	-5292	0
bin	-5014	0
bin	-4736	0
bin	-4458	0
bin	-4180	0
bin	-3902	0
bin	-3624	0
bin	-3346	0
bin	-3068	0
bin	-2790	0
bin	-2512	0
bin	-2234	0
bin	-1956	0
bin	-1678	0
bin	-1400	0
bin	-1122	0
bin	-844	0
bin	-566	0
bin	-288	0
bin	-10	6
bin	268	0
bin	546	0
bin	824	0
bin	1102	1
bin	1380	0
bin	1658	0
bin	1936	0
bin	2214	0
bin	2492	0
bin	2770	0
bin	3048	2
bin	3326	0
bin	3604	0
bin	3882	0
bin	4160	0
bin	4438	0
bin	4716	0
bin	4994	0
bin	5272	0
bin	5550	0
bin	5828	0
bin	6106	0
bin	6384	0
bin	6662	0
bin	6940	0
bin	7218	0
bin	7496	0
bin	7774	0
bin	8052	0
bin	8330	0
bin	8608	0
bin	8886	0
bin	9164	0
bin	9442	0
bin	9720	1
bin	9998	0
bin	10276	0
bin	10554	0
bin	10832	0
bin	11110	0
bin	11388	0
bin	11666	0
bin	11944	0
bin	12222	0
bin	12500	0
bin	12778	0
bin	13056	0
bin	13334	0
bin	13612	0
bin	13890	0
bin	14168	0
bin	14446	0
bin	14724	0
bin	15002	0
bin	15280	0
bin	15558	0
bin	15836	0
bin	16114	0
bin	16392	0
bin	16670	0
bin	16948	0
bin	17226	1
bin	17504	0
bin	17782	0
bin	18060	0
bin	18338	0
bin	18616	0
bin	18894	0
bin	19172	0
bin	19450	0
bin	19728	0
bin	20006	0
bin	20284	0
bin	20562	0
bin	20840	0
bin	21118	1
bin	21396	0
bin	21674	0
bin	21952	0
bin	22230	0
bin	22508	0
bin	22786	1
bin	23064	0
bin	23342	0
bin	23620	1
bin	23898	0
bin	24176	0
bin	24454	0
bin	24732	0
bin	25010	0
bin	25288	0
bin	25566	0
bin	25844	0
bin	26122	0
bin	26400	0
bin	26678	0
bin	26956	0
bin	27234	0
bin	27512	1
bin	27790	0
bin	28068	0
bin	28346	0
bin	28624	0
bin	28902	0
bin	29180	0
bin	29458	0
bin	29736	0
bin	30014	0
bin	30292	0
bin	30570	0
bin	30848	0
bin	31126	0
bin	31404	0
bin	31682	0
bin	31960	0
bin	32238	0
bin	32516	0
bin	32794	0
bin	33072	0
bin	33350	0
bin	33628	0
bin	33906	0
bin	34184	0
bin	34462	0
bin	34740	0
bin	35018	0
bin	35296	0
bin	35574	0
bin	35852	0
bin	36130	0
bin	36408	0
bin	36686	0
bin	36964	0
bin	37242	0
bin	37520	0
bin	37798	0
bin	38076	0
bin	38354	0
bin	38632	0
bin	38910	0
bin	39188	0
bin	39466	0
bin	39744	0
bin	40022	0
bin	40300	0
bin	40578	0
bin	40856	0
bin	41134	0
bin	41412	0
bin	41690	0
statistic mcsl_rtp.core2.sink 	SoP-network-latency-ns
field count 15
field mean 108801.4
field stddev 65696.248134665
field sum 1632021
field sqrsum 237990127895
field min 3147
field max 212447
statistic mcsl_rtp.core2.sink 	SoP-queueing-time-ns
field count 15
field mean 8676.0666666667
field stddev 10680.47965895
field sum 130141
field sqrsum 2726129032.5
field min 3.9999999999959
field max 27751.5
statistic mcsl_rtp.core2.sink 	EoP-end-to-end-latency-ns
field count 15
field mean 12517.666666667
field stddev 13330.648668263
field sum 187765
field sqrsum 4838266396.5
field min 3042
field max 50583
statistic mcsl_rtp.core2.sink 	EoP-network-latency-ns
field count 15
field mean 112626.73333333
field stddev 71945.134690527
field sum 1689401
field sqrsum 262737149599
field min 5591
field max 231705
statistic mcsl_rtp.core2.sink 	EoP-queueing-time-ns
field count 15
field mean 12501.933266667
field stddev 13328.132684576
field sum 187528.999
field sqrsum 4831422723.07
field min 3026
field max 50565
statistic mcsl_rtp.core2.sink 	packet-network-latency-ns
field count 0
field mean 0
field stddev -1.#IND
field sum 0
field sqrsum 0
field min 0
field max 0
statistic mcsl_rtp.core2.sink 	network-latency-ns
field count 15979
field mean 116712.05463421
field stddev 67884.814981487
field sum 1864941921
field sqrsum 2.912933893962e+014
field min 1005
field max 231705
statistic mcsl_rtp.core2.sink 	end-to-end-latency-ns
field count 15979
field mean 10989.949339758
field stddev 11771.244408893
field sum 175608400.5
field sqrsum 4143874175784.8
field min 9.9999999999953
field max 50583
statistic mcsl_rtp.core2.sink 	number-received-packets
field count 1
field mean 15
field stddev -1.#IND
field sum 15
field sqrsum 225
field min 15
field max 15
scalar mcsl_rtp.core2.sink 	Sink-Total-BW-MBps 	148.79654000507
statistic mcsl_rtp.router2.port[0].sched 	link-utilization
field count 1
field mean 5.0755205423325
field stddev -1.#IND
field sum 5.0755205423325
field sqrsum 25.760908775639
field min 5.0755205423325
field max 5.0755205423325
statistic mcsl_rtp.router2.port[1].sched 	link-utilization
field count 1
field mean 7.4398443029016
field stddev -1.#IND
field sum 7.4398443029016
field sqrsum 55.351283251418
field min 7.4398443029016
field max 7.4398443029016
scalar mcsl_rtp.core3.sink 	flit-per-vc-0 	18940
scalar mcsl_rtp.core3.sink 	flit-per-vc-1 	0
statistic mcsl_rtp.core3.sink 	SoP-end-to-end-latency-ns
field count 14
field mean 6205.4642857143
field stddev 10375.374865265
field sum 86876.5
field sqrsum 1938538264.75
field min 14.000000000005
field max 32236.5
statistic mcsl_rtp.core3.sink 	SoP-E2E-Latency-Hist
field count 14
field mean 6205
field stddev 10375.351879112
field sum 86870
field sqrsum 1938451396
field min 14
field max 32236
attr type  int
bin	-INF	0
bin	-16175	0
bin	-15852	0
bin	-15529	0
bin	-15206	0
bin	-14883	0
bin	-14560	0
bin	-14237	0
bin	-13914	0
bin	-13591	0
bin	-13268	0
bin	-12945	0
bin	-12622	0
bin	-12299	0
bin	-11976	0
bin	-11653	0
bin	-11330	0
bin	-11007	0
bin	-10684	0
bin	-10361	0
bin	-10038	0
bin	-9715	0
bin	-9392	0
bin	-9069	0
bin	-8746	0
bin	-8423	0
bin	-8100	0
bin	-7777	0
bin	-7454	0
bin	-7131	0
bin	-6808	0
bin	-6485	0
bin	-6162	0
bin	-5839	0
bin	-5516	0
bin	-5193	0
bin	-4870	0
bin	-4547	0
bin	-4224	0
bin	-3901	0
bin	-3578	0
bin	-3255	0
bin	-2932	0
bin	-2609	0
bin	-2286	0
bin	-1963	0
bin	-1640	0
bin	-1317	0
bin	-994	0
bin	-671	0
bin	-348	0
bin	-25	8
bin	298	0
bin	621	0
bin	944	0
bin	1267	0
bin	1590	0
bin	1913	0
bin	2236	0
bin	2559	0
bin	2882	2
bin	3205	0
bin	3528	0
bin	3851	0
bin	4174	0
bin	4497	0
bin	4820	0
bin	5143	0
bin	5466	0
bin	5789	0
bin	6112	0
bin	6435	0
bin	6758	0
bin	7081	0
bin	7404	0
bin	7727	0
bin	8050	0
bin	8373	0
bin	8696	0
bin	9019	0
bin	9342	0
bin	9665	0
bin	9988	0
bin	10311	0
bin	10634	0
bin	10957	1
bin	11280	0
bin	11603	0
bin	11926	0
bin	12249	0
bin	12572	0
bin	12895	1
bin	13218	0
bin	13541	0
bin	13864	0
bin	14187	0
bin	14510	0
bin	14833	0
bin	15156	0
bin	15479	0
bin	15802	0
bin	16125	0
bin	16448	0
bin	16771	0
bin	17094	0
bin	17417	0
bin	17740	0
bin	18063	0
bin	18386	0
bin	18709	0
bin	19032	0
bin	19355	0
bin	19678	0
bin	20001	0
bin	20324	0
bin	20647	0
bin	20970	0
bin	21293	0
bin	21616	0
bin	21939	0
bin	22262	0
bin	22585	0
bin	22908	0
bin	23231	0
bin	23554	0
bin	23877	0
bin	24200	1
bin	24523	0
bin	24846	0
bin	25169	0
bin	25492	0
bin	25815	0
bin	26138	0
bin	26461	0
bin	26784	0
bin	27107	0
bin	27430	0
bin	27753	0
bin	28076	0
bin	28399	0
bin	28722	0
bin	29045	0
bin	29368	0
bin	29691	0
bin	30014	0
bin	30337	0
bin	30660	0
bin	30983	0
bin	31306	0
bin	31629	0
bin	31952	1
bin	32275	0
bin	32598	0
bin	32921	0
bin	33244	0
bin	33567	0
bin	33890	0
bin	34213	0
bin	34536	0
bin	34859	0
bin	35182	0
bin	35505	0
bin	35828	0
bin	36151	0
bin	36474	0
bin	36797	0
bin	37120	0
bin	37443	0
bin	37766	0
bin	38089	0
bin	38412	0
bin	38735	0
bin	39058	0
bin	39381	0
bin	39704	0
bin	40027	0
bin	40350	0
bin	40673	0
bin	40996	0
bin	41319	0
bin	41642	0
bin	41965	0
bin	42288	0
bin	42611	0
bin	42934	0
bin	43257	0
bin	43580	0
bin	43903	0
bin	44226	0
bin	44549	0
bin	44872	0
bin	45195	0
bin	45518	0
bin	45841	0
bin	46164	0
bin	46487	0
bin	46810	0
bin	47133	0
bin	47456	0
bin	47779	0
bin	48102	0
bin	48425	0
statistic mcsl_rtp.core3.sink 	SoP-network-latency-ns
field count 14
field mean 46753.857142857
field stddev 42251.936874779
field sum 654554
field sqrsum 53810864414
field min 3151
field max 149593
statistic mcsl_rtp.core3.sink 	SoP-queueing-time-ns
field count 14
field mean 6192.6071428571
field stddev 10375.923883199
field sum 86696.5
field sqrsum 1936454718.75
field min 4.0000000000018
field max 32224.5
statistic mcsl_rtp.core3.sink 	EoP-end-to-end-latency-ns
field count 14
field mean 17486.464285714
field stddev 12406.630763526
field sum 244810.5
field sqrsum 6281888394.75
field min 2040
field max 42428.5
statistic mcsl_rtp.core3.sink 	EoP-network-latency-ns
field count 14
field mean 58034.857142857
field stddev 42936.35620285
field sum 812488
field sqrsum 71118523902
field min 9827
field max 151619
statistic mcsl_rtp.core3.sink 	EoP-queueing-time-ns
field count 14
field mean 17473.035714286
field stddev 12404.374977998
field sum 244622.5
field sqrsum 6274588420.75
field min 2030
field max 42416.5
statistic mcsl_rtp.core3.sink 	packet-network-latency-ns
field count 0
field mean 0
field stddev -1.#IND
field sum 0
field sqrsum 0
field min 0
field max 0
statistic mcsl_rtp.core3.sink 	network-latency-ns
field count 18940
field mean 46070.058922914
field stddev 34327.590317324
field sum 872566916
field sqrsum 62516613526316
field min 1001
field max 151619
statistic mcsl_rtp.core3.sink 	end-to-end-latency-ns
field count 18940
field mean 13611.478167899
field stddev 10078.227437245
field sum 257801396.5
field sqrsum 5432704966608.8
field min 9.9999999999999
field max 42428.5
statistic mcsl_rtp.core3.sink 	number-received-packets
field count 1
field mean 14
field stddev -1.#IND
field sum 14
field sqrsum 196
field min 14
field max 14
scalar mcsl_rtp.core3.sink 	Sink-Total-BW-MBps 	176.36938905413
statistic mcsl_rtp.router3.port[0].sched 	link-utilization
field count 1
field mean 13.982474764406
field stddev -1.#IND
field sum 13.982474764406
field sqrsum 195.50960053724
field min 13.982474764406
field max 13.982474764406
statistic mcsl_rtp.router3.port[1].sched 	link-utilization
field count 1
field mean 8.8180243602637
field stddev -1.#IND
field sum 8.8180243602637
field sqrsum 77.757553618204
field min 8.8180243602637
field max 8.8180243602637
scalar mcsl_rtp.core4.sink 	flit-per-vc-0 	8971
scalar mcsl_rtp.core4.sink 	flit-per-vc-1 	0
statistic mcsl_rtp.core4.sink 	SoP-end-to-end-latency-ns
field count 10
field mean 369.3
field stddev 812.7978155045
field sum 3693
field sqrsum 7309587.5
field min 21.500000000002
field max 2539.5
statistic mcsl_rtp.core4.sink 	SoP-E2E-Latency-Hist
field count 10
field mean 368.8
field stddev 812.73568205714
field sum 3688
field sqrsum 7304988
field min 21
field max 2539
attr type  int
bin	-INF	0
bin	-1242	0
bin	-1216	0
bin	-1190	0
bin	-1164	0
bin	-1138	0
bin	-1112	0
bin	-1086	0
bin	-1060	0
bin	-1034	0
bin	-1008	0
bin	-982	0
bin	-956	0
bin	-930	0
bin	-904	0
bin	-878	0
bin	-852	0
bin	-826	0
bin	-800	0
bin	-774	0
bin	-748	0
bin	-722	0
bin	-696	0
bin	-670	0
bin	-644	0
bin	-618	0
bin	-592	0
bin	-566	0
bin	-540	0
bin	-514	0
bin	-488	0
bin	-462	0
bin	-436	0
bin	-410	0
bin	-384	0
bin	-358	0
bin	-332	0
bin	-306	0
bin	-280	0
bin	-254	0
bin	-228	0
bin	-202	0
bin	-176	0
bin	-150	0
bin	-124	0
bin	-98	0
bin	-72	0
bin	-46	0
bin	-20	0
bin	6	6
bin	32	2
bin	58	0
bin	84	0
bin	110	0
bin	136	0
bin	162	0
bin	188	0
bin	214	0
bin	240	0
bin	266	0
bin	292	0
bin	318	0
bin	344	0
bin	370	0
bin	396	0
bin	422	0
bin	448	0
bin	474	0
bin	500	0
bin	526	0
bin	552	0
bin	578	0
bin	604	0
bin	630	0
bin	656	0
bin	682	0
bin	708	0
bin	734	0
bin	760	0
bin	786	0
bin	812	0
bin	838	0
bin	864	0
bin	890	0
bin	916	1
bin	942	0
bin	968	0
bin	994	0
bin	1020	0
bin	1046	0
bin	1072	0
bin	1098	0
bin	1124	0
bin	1150	0
bin	1176	0
bin	1202	0
bin	1228	0
bin	1254	0
bin	1280	0
bin	1306	0
bin	1332	0
bin	1358	0
bin	1384	0
bin	1410	0
bin	1436	0
bin	1462	0
bin	1488	0
bin	1514	0
bin	1540	0
bin	1566	0
bin	1592	0
bin	1618	0
bin	1644	0
bin	1670	0
bin	1696	0
bin	1722	0
bin	1748	0
bin	1774	0
bin	1800	0
bin	1826	0
bin	1852	0
bin	1878	0
bin	1904	0
bin	1930	0
bin	1956	0
bin	1982	0
bin	2008	0
bin	2034	0
bin	2060	0
bin	2086	0
bin	2112	0
bin	2138	0
bin	2164	0
bin	2190	0
bin	2216	0
bin	2242	0
bin	2268	0
bin	2294	0
bin	2320	0
bin	2346	0
bin	2372	0
bin	2398	0
bin	2424	0
bin	2450	0
bin	2476	0
bin	2502	0
bin	2528	1
bin	2554	0
bin	2580	0
bin	2606	0
bin	2632	0
bin	2658	0
bin	2684	0
bin	2710	0
bin	2736	0
bin	2762	0
bin	2788	0
bin	2814	0
bin	2840	0
bin	2866	0
bin	2892	0
bin	2918	0
bin	2944	0
bin	2970	0
bin	2996	0
bin	3022	0
bin	3048	0
bin	3074	0
bin	3100	0
bin	3126	0
bin	3152	0
bin	3178	0
bin	3204	0
bin	3230	0
bin	3256	0
bin	3282	0
bin	3308	0
bin	3334	0
bin	3360	0
bin	3386	0
bin	3412	0
bin	3438	0
bin	3464	0
bin	3490	0
bin	3516	0
bin	3542	0
bin	3568	0
bin	3594	0
bin	3620	0
bin	3646	0
bin	3672	0
bin	3698	0
bin	3724	0
bin	3750	0
bin	3776	0
bin	3802	0
statistic mcsl_rtp.core4.sink 	SoP-network-latency-ns
field count 10
field mean 110654.2
field stddev 62630.220530774
field sum 1106542
field sqrsum 157746420490
field min 6467
field max 202793
statistic mcsl_rtp.core4.sink 	SoP-queueing-time-ns
field count 10
field mean 351.3
field stddev 812.83896177397
field sum 3513
field sqrsum 7180481.5
field min 7.4999999999944
field max 2519.5
statistic mcsl_rtp.core4.sink 	EoP-end-to-end-latency-ns
field count 10
field mean 8396.5
field stddev 10495.467069168
field sum 83965
field sqrsum 1696405583.5
field min 2853.5
field max 28428
statistic mcsl_rtp.core4.sink 	EoP-network-latency-ns
field count 10
field mean 118681.4
field stddev 60770.184405769
field sum 1186814
field sqrsum 174089884874
field min 10215
field max 205933
statistic mcsl_rtp.core4.sink 	EoP-queueing-time-ns
field count 10
field mean 8379.6999
field stddev 10497.999000743
field sum 83796.999
field sqrsum 1694065551.317
field min 2833.5
field max 28416
statistic mcsl_rtp.core4.sink 	packet-network-latency-ns
field count 0
field mean 0
field stddev -1.#IND
field sum 0
field sqrsum 0
field min 0
field max 0
statistic mcsl_rtp.core4.sink 	network-latency-ns
field count 8971
field mean 111961.48734812
field stddev 52724.327852911
field sum 1004406503
field sqrsum 1.3739014306345e+014
field min 6467
field max 205945
statistic mcsl_rtp.core4.sink 	end-to-end-latency-ns
field count 8971
field mean 7004.6526028313
field stddev 7821.9048543433
field sum 62838738.5
field sqrsum 988967827279.75
field min 17.500000000003
field max 28428
statistic mcsl_rtp.core4.sink 	number-received-packets
field count 1
field mean 10
field stddev -1.#IND
field sum 10
field sqrsum 100
field min 10
field max 10
scalar mcsl_rtp.core4.sink 	Sink-Total-BW-MBps 	83.538003653887
statistic mcsl_rtp.router4.port[0].sched 	link-utilization
field count 1
field mean 6.2586136253585
field stddev -1.#IND
field sum 6.2586136253585
field sqrsum 39.170244511523
field min 6.2586136253585
field max 6.2586136253585
statistic mcsl_rtp.router4.port[1].sched 	link-utilization
field count 1
field mean 4.1769098968227
field stddev -1.#IND
field sum 4.1769098968227
field sqrsum 17.446576286176
field min 4.1769098968227
field max 4.1769098968227
scalar mcsl_rtp.core5.sink 	flit-per-vc-0 	15243
scalar mcsl_rtp.core5.sink 	flit-per-vc-1 	0
statistic mcsl_rtp.core5.sink 	SoP-end-to-end-latency-ns
field count 12
field mean 8021.0833333333
field stddev 12751.939180221
field sum 96253
field sqrsum 2560784815.5
field min 18
field max 30026
statistic mcsl_rtp.core5.sink 	SoP-E2E-Latency-Hist
field count 12
field mean 8020.5
field stddev 12751.762812183
field sum 96246
field sqrsum 2560623046
field min 17
field max 30025
attr type  int
bin	-INF	0
bin	-15079	0
bin	-14778	0
bin	-14477	0
bin	-14176	0
bin	-13875	0
bin	-13574	0
bin	-13273	0
bin	-12972	0
bin	-12671	0
bin	-12370	0
bin	-12069	0
bin	-11768	0
bin	-11467	0
bin	-11166	0
bin	-10865	0
bin	-10564	0
bin	-10263	0
bin	-9962	0
bin	-9661	0
bin	-9360	0
bin	-9059	0
bin	-8758	0
bin	-8457	0
bin	-8156	0
bin	-7855	0
bin	-7554	0
bin	-7253	0
bin	-6952	0
bin	-6651	0
bin	-6350	0
bin	-6049	0
bin	-5748	0
bin	-5447	0
bin	-5146	0
bin	-4845	0
bin	-4544	0
bin	-4243	0
bin	-3942	0
bin	-3641	0
bin	-3340	0
bin	-3039	0
bin	-2738	0
bin	-2437	0
bin	-2136	0
bin	-1835	0
bin	-1534	0
bin	-1233	0
bin	-932	0
bin	-631	0
bin	-330	0
bin	-29	7
bin	272	0
bin	573	0
bin	874	0
bin	1175	0
bin	1476	0
bin	1777	0
bin	2078	1
bin	2379	0
bin	2680	0
bin	2981	0
bin	3282	0
bin	3583	0
bin	3884	0
bin	4185	0
bin	4486	0
bin	4787	0
bin	5088	0
bin	5389	0
bin	5690	0
bin	5991	0
bin	6292	0
bin	6593	0
bin	6894	1
bin	7195	0
bin	7496	0
bin	7797	0
bin	8098	0
bin	8399	0
bin	8700	0
bin	9001	0
bin	9302	0
bin	9603	0
bin	9904	0
bin	10205	0
bin	10506	0
bin	10807	0
bin	11108	0
bin	11409	0
bin	11710	0
bin	12011	0
bin	12312	0
bin	12613	0
bin	12914	0
bin	13215	0
bin	13516	0
bin	13817	0
bin	14118	0
bin	14419	0
bin	14720	0
bin	15021	0
bin	15322	0
bin	15623	0
bin	15924	0
bin	16225	0
bin	16526	0
bin	16827	0
bin	17128	0
bin	17429	0
bin	17730	0
bin	18031	0
bin	18332	0
bin	18633	0
bin	18934	0
bin	19235	0
bin	19536	0
bin	19837	0
bin	20138	0
bin	20439	0
bin	20740	0
bin	21041	0
bin	21342	0
bin	21643	0
bin	21944	0
bin	22245	0
bin	22546	0
bin	22847	0
bin	23148	0
bin	23449	0
bin	23750	0
bin	24051	0
bin	24352	0
bin	24653	0
bin	24954	0
bin	25255	0
bin	25556	0
bin	25857	0
bin	26158	0
bin	26459	0
bin	26760	0
bin	27061	0
bin	27362	0
bin	27663	0
bin	27964	1
bin	28265	1
bin	28566	0
bin	28867	0
bin	29168	0
bin	29469	0
bin	29770	1
bin	30071	0
bin	30372	0
bin	30673	0
bin	30974	0
bin	31275	0
bin	31576	0
bin	31877	0
bin	32178	0
bin	32479	0
bin	32780	0
bin	33081	0
bin	33382	0
bin	33683	0
bin	33984	0
bin	34285	0
bin	34586	0
bin	34887	0
bin	35188	0
bin	35489	0
bin	35790	0
bin	36091	0
bin	36392	0
bin	36693	0
bin	36994	0
bin	37295	0
bin	37596	0
bin	37897	0
bin	38198	0
bin	38499	0
bin	38800	0
bin	39101	0
bin	39402	0
bin	39703	0
bin	40004	0
bin	40305	0
bin	40606	0
bin	40907	0
bin	41208	0
bin	41509	0
bin	41810	0
bin	42111	0
bin	42412	0
bin	42713	0
bin	43014	0
bin	43315	0
bin	43616	0
bin	43917	0
bin	44218	0
bin	44519	0
bin	44820	0
bin	45121	0
statistic mcsl_rtp.core5.sink 	SoP-network-latency-ns
field count 12
field mean 77114
field stddev 51528.370124004
field sum 925368
field sqrsum 100565730156
field min 1143
field max 157543
statistic mcsl_rtp.core5.sink 	SoP-queueing-time-ns
field count 12
field mean 8007.0833333333
field stddev 12751.972936183
field sum 96085
field sqrsum 2558101553.5
field min 0.4999999999999
field max 30012
statistic mcsl_rtp.core5.sink 	EoP-end-to-end-latency-ns
field count 12
field mean 14459.75
field stddev 11502.747437618
field sum 173517
field sqrsum 3964457625.5
field min 2689
field max 28802
statistic mcsl_rtp.core5.sink 	EoP-network-latency-ns
field count 12
field mean 83552.666666667
field stddev 38603.962253854
field sum 1002632
field sqrsum 100165502204
field min 21607
field max 160211
statistic mcsl_rtp.core5.sink 	EoP-queueing-time-ns
field count 12
field mean 14446.4165
field stddev 11500.084167345
field sum 173356.998
field sqrsum 3959158690.714
field min 2680.999
field max 28786
statistic mcsl_rtp.core5.sink 	packet-network-latency-ns
field count 0
field mean 0
field stddev -1.#IND
field sum 0
field sqrsum 0
field min 0
field max 0
statistic mcsl_rtp.core5.sink 	network-latency-ns
field count 15243
field mean 69470.309715935
field stddev 39502.537862604
field sum 1058935931
field sqrsum 97348993580115
field min 1143
field max 160215
statistic mcsl_rtp.core5.sink 	end-to-end-latency-ns
field count 15243
field mean 10021.498097487
field stddev 8907.0355531639
field sum 152757695.5
field sqrsum 2740089328337.3
field min 9.0000000000099
field max 33146
statistic mcsl_rtp.core5.sink 	number-received-packets
field count 1
field mean 12
field stddev -1.#IND
field sum 12
field sqrsum 144
field min 12
field max 12
scalar mcsl_rtp.core5.sink 	Sink-Total-BW-MBps 	141.94290376727
statistic mcsl_rtp.router5.port[0].sched 	link-utilization
field count 1
field mean 4.5982791373338
field stddev -1.#IND
field sum 4.5982791373338
field sqrsum 21.144171024839
field min 4.5982791373338
field max 4.5982791373338
statistic mcsl_rtp.router5.port[1].sched 	link-utilization
field count 1
field mean 7.097161694044
field stddev -1.#IND
field sum 7.097161694044
field sqrsum 50.369704111406
field min 7.097161694044
field max 7.097161694044
scalar mcsl_rtp.core6.sink 	flit-per-vc-0 	6564
scalar mcsl_rtp.core6.sink 	flit-per-vc-1 	0
statistic mcsl_rtp.core6.sink 	SoP-end-to-end-latency-ns
field count 8
field mean 20431.375
field stddev 10981.222332269
field sum 163451
field sqrsum 4183639382.5
field min 2713
field max 31255.5
statistic mcsl_rtp.core6.sink 	SoP-E2E-Latency-Hist
field count 8
field mean 20431.125
field stddev 10981.161940049
field sum 163449
field sqrsum 4183548373
field min 2713
field max 31255
attr type  int
bin	-INF	0
bin	-11616	0
bin	-11330	0
bin	-11044	0
bin	-10758	0
bin	-10472	0
bin	-10186	0
bin	-9900	0
bin	-9614	0
bin	-9328	0
bin	-9042	0
bin	-8756	0
bin	-8470	0
bin	-8184	0
bin	-7898	0
bin	-7612	0
bin	-7326	0
bin	-7040	0
bin	-6754	0
bin	-6468	0
bin	-6182	0
bin	-5896	0
bin	-5610	0
bin	-5324	0
bin	-5038	0
bin	-4752	0
bin	-4466	0
bin	-4180	0
bin	-3894	0
bin	-3608	0
bin	-3322	0
bin	-3036	0
bin	-2750	0
bin	-2464	0
bin	-2178	0
bin	-1892	0
bin	-1606	0
bin	-1320	0
bin	-1034	0
bin	-748	0
bin	-462	0
bin	-176	0
bin	110	0
bin	396	0
bin	682	0
bin	968	0
bin	1254	0
bin	1540	0
bin	1826	0
bin	2112	0
bin	2398	0
bin	2684	1
bin	2970	0
bin	3256	0
bin	3542	1
bin	3828	0
bin	4114	0
bin	4400	0
bin	4686	0
bin	4972	0
bin	5258	0
bin	5544	0
bin	5830	0
bin	6116	0
bin	6402	0
bin	6688	0
bin	6974	0
bin	7260	0
bin	7546	0
bin	7832	0
bin	8118	0
bin	8404	0
bin	8690	0
bin	8976	0
bin	9262	0
bin	9548	0
bin	9834	0
bin	10120	0
bin	10406	0
bin	10692	0
bin	10978	0
bin	11264	0
bin	11550	0
bin	11836	0
bin	12122	0
bin	12408	0
bin	12694	0
bin	12980	0
bin	13266	0
bin	13552	0
bin	13838	0
bin	14124	0
bin	14410	0
bin	14696	0
bin	14982	0
bin	15268	0
bin	15554	0
bin	15840	0
bin	16126	0
bin	16412	0
bin	16698	0
bin	16984	0
bin	17270	0
bin	17556	0
bin	17842	0
bin	18128	0
bin	18414	0
bin	18700	0
bin	18986	0
bin	19272	0
bin	19558	0
bin	19844	0
bin	20130	0
bin	20416	0
bin	20702	0
bin	20988	0
bin	21274	0
bin	21560	0
bin	21846	1
bin	22132	0
bin	22418	0
bin	22704	0
bin	22990	0
bin	23276	0
bin	23562	0
bin	23848	0
bin	24134	0
bin	24420	0
bin	24706	1
bin	24992	0
bin	25278	2
bin	25564	0
bin	25850	0
bin	26136	0
bin	26422	0
bin	26708	0
bin	26994	0
bin	27280	0
bin	27566	0
bin	27852	1
bin	28138	0
bin	28424	0
bin	28710	0
bin	28996	0
bin	29282	0
bin	29568	0
bin	29854	0
bin	30140	0
bin	30426	0
bin	30712	0
bin	30998	1
bin	31284	0
bin	31570	0
bin	31856	0
bin	32142	0
bin	32428	0
bin	32714	0
bin	33000	0
bin	33286	0
bin	33572	0
bin	33858	0
bin	34144	0
bin	34430	0
bin	34716	0
bin	35002	0
bin	35288	0
bin	35574	0
bin	35860	0
bin	36146	0
bin	36432	0
bin	36718	0
bin	37004	0
bin	37290	0
bin	37576	0
bin	37862	0
bin	38148	0
bin	38434	0
bin	38720	0
bin	39006	0
bin	39292	0
bin	39578	0
bin	39864	0
bin	40150	0
bin	40436	0
bin	40722	0
bin	41008	0
bin	41294	0
bin	41580	0
bin	41866	0
bin	42152	0
bin	42438	0
bin	42724	0
bin	43010	0
bin	43296	0
bin	43582	0
bin	43868	0
bin	44154	0
bin	44440	0
bin	44726	0
bin	45012	0
bin	45298	0
bin	45584	0
statistic mcsl_rtp.core6.sink 	SoP-network-latency-ns
field count 8
field mean 99414
field stddev 38090.1281099
field sum 795312
field sqrsum 89221152184
field min 56127
field max 160235
statistic mcsl_rtp.core6.sink 	SoP-queueing-time-ns
field count 8
field mean 20416.375
field stddev 10979.425807098
field sum 163331
field sqrsum 4178461482.5
field min 2701
field max 31239.5
statistic mcsl_rtp.core6.sink 	EoP-end-to-end-latency-ns
field count 8
field mean 4108.875
field stddev 1664.7332851584
field sum 32871
field sqrsum 154462188.5
field min 2499.5
field max 6806
statistic mcsl_rtp.core6.sink 	EoP-network-latency-ns
field count 8
field mean 83091.5
field stddev 44755.585748756
field sum 664732
field sqrsum 69255016168
field min 33819
field max 161477
statistic mcsl_rtp.core6.sink 	EoP-queueing-time-ns
field count 8
field mean 4093.874875
field stddev 1664.3704508119
field sum 32750.999
field sqrsum 153469394.92
field min 2483.5
field max 6789.999
statistic mcsl_rtp.core6.sink 	packet-network-latency-ns
field count 0
field mean 0
field stddev -1.#IND
field sum 0
field sqrsum 0
field min 0
field max 0
statistic mcsl_rtp.core6.sink 	network-latency-ns
field count 6564
field mean 88775.384521633
field stddev 42966.985588877
field sum 582721624
field sqrsum 63847696465124
field min 30663
field max 164171
statistic mcsl_rtp.core6.sink 	end-to-end-latency-ns
field count 6564
field mean 7466.1907373553
field stddev 9715.2048717783
field sum 49008076
field sqrsum 985353748100
field min 18.000000000001
field max 33735.5
statistic mcsl_rtp.core6.sink 	number-received-packets
field count 1
field mean 8
field stddev -1.#IND
field sum 8
field sqrsum 64
field min 8
field max 8
scalar mcsl_rtp.core6.sink 	Sink-Total-BW-MBps 	61.124005794684
statistic mcsl_rtp.router6.port[0].sched 	link-utilization
field count 1
field mean 6.7433046522889
field stddev -1.#IND
field sum 6.7433046522889
field sqrsum 45.472157633581
field min 6.7433046522889
field max 6.7433046522889
statistic mcsl_rtp.router6.port[1].sched 	link-utilization
field count 1
field mean 3.0562073974746
field stddev -1.#IND
field sum 3.0562073974746
field sqrsum 9.3404036563783
field min 3.0562073974746
field max 3.0562073974746
scalar mcsl_rtp.core7.sink 	flit-per-vc-0 	7127
scalar mcsl_rtp.core7.sink 	flit-per-vc-1 	0
statistic mcsl_rtp.core7.sink 	SoP-end-to-end-latency-ns
field count 6
field mean 5056.25
field stddev 7800.525801188
field sum 30337.5
field sqrsum 457634998.25
field min 18.000000000005
field max 15478
statistic mcsl_rtp.core7.sink 	SoP-E2E-Latency-Hist
field count 6
field mean 5056
field stddev 7800.3413002253
field sum 30336
field sqrsum 457605438
field min 18
field max 15478
attr type  int
bin	-INF	0
bin	-7752	0
bin	-7597	0
bin	-7442	0
bin	-7287	0
bin	-7132	0
bin	-6977	0
bin	-6822	0
bin	-6667	0
bin	-6512	0
bin	-6357	0
bin	-6202	0
bin	-6047	0
bin	-5892	0
bin	-5737	0
bin	-5582	0
bin	-5427	0
bin	-5272	0
bin	-5117	0
bin	-4962	0
bin	-4807	0
bin	-4652	0
bin	-4497	0
bin	-4342	0
bin	-4187	0
bin	-4032	0
bin	-3877	0
bin	-3722	0
bin	-3567	0
bin	-3412	0
bin	-3257	0
bin	-3102	0
bin	-2947	0
bin	-2792	0
bin	-2637	0
bin	-2482	0
bin	-2327	0
bin	-2172	0
bin	-2017	0
bin	-1862	0
bin	-1707	0
bin	-1552	0
bin	-1397	0
bin	-1242	0
bin	-1087	0
bin	-932	0
bin	-777	0
bin	-622	0
bin	-467	0
bin	-312	0
bin	-157	0
bin	-2	4
bin	153	0
bin	308	0
bin	463	0
bin	618	0
bin	773	0
bin	928	0
bin	1083	0
bin	1238	0
bin	1393	0
bin	1548	0
bin	1703	0
bin	1858	0
bin	2013	0
bin	2168	0
bin	2323	0
bin	2478	0
bin	2633	0
bin	2788	0
bin	2943	0
bin	3098	0
bin	3253	0
bin	3408	0
bin	3563	0
bin	3718	0
bin	3873	0
bin	4028	0
bin	4183	0
bin	4338	0
bin	4493	0
bin	4648	0
bin	4803	0
bin	4958	0
bin	5113	0
bin	5268	0
bin	5423	0
bin	5578	0
bin	5733	0
bin	5888	0
bin	6043	0
bin	6198	0
bin	6353	0
bin	6508	0
bin	6663	0
bin	6818	0
bin	6973	0
bin	7128	0
bin	7283	0
bin	7438	0
bin	7593	0
bin	7748	0
bin	7903	0
bin	8058	0
bin	8213	0
bin	8368	0
bin	8523	0
bin	8678	0
bin	8833	0
bin	8988	0
bin	9143	0
bin	9298	0
bin	9453	0
bin	9608	0
bin	9763	0
bin	9918	0
bin	10073	0
bin	10228	0
bin	10383	0
bin	10538	0
bin	10693	0
bin	10848	0
bin	11003	0
bin	11158	0
bin	11313	0
bin	11468	0
bin	11623	0
bin	11778	0
bin	11933	0
bin	12088	0
bin	12243	0
bin	12398	0
bin	12553	0
bin	12708	0
bin	12863	0
bin	13018	0
bin	13173	0
bin	13328	0
bin	13483	0
bin	13638	0
bin	13793	0
bin	13948	0
bin	14103	0
bin	14258	0
bin	14413	0
bin	14568	0
bin	14723	1
bin	14878	0
bin	15033	0
bin	15188	0
bin	15343	1
bin	15498	0
bin	15653	0
bin	15808	0
bin	15963	0
bin	16118	0
bin	16273	0
bin	16428	0
bin	16583	0
bin	16738	0
bin	16893	0
bin	17048	0
bin	17203	0
bin	17358	0
bin	17513	0
bin	17668	0
bin	17823	0
bin	17978	0
bin	18133	0
bin	18288	0
bin	18443	0
bin	18598	0
bin	18753	0
bin	18908	0
bin	19063	0
bin	19218	0
bin	19373	0
bin	19528	0
bin	19683	0
bin	19838	0
bin	19993	0
bin	20148	0
bin	20303	0
bin	20458	0
bin	20613	0
bin	20768	0
bin	20923	0
bin	21078	0
bin	21233	0
bin	21388	0
bin	21543	0
bin	21698	0
bin	21853	0
bin	22008	0
bin	22163	0
bin	22318	0
bin	22473	0
bin	22628	0
bin	22783	0
bin	22938	0
bin	23093	0
bin	23248	0
statistic mcsl_rtp.core7.sink 	SoP-network-latency-ns
field count 6
field mean 92647.666666667
field stddev 31256.494151883
field sum 555886
field sqrsum 56386382966
field min 37249
field max 129901
statistic mcsl_rtp.core7.sink 	SoP-queueing-time-ns
field count 6
field mean 5044.25
field stddev 7803.6230287604
field sum 30265.5
field sqrsum 457149410.25
field min 3.0000000000064
field max 15470
statistic mcsl_rtp.core7.sink 	EoP-end-to-end-latency-ns
field count 6
field mean 11087.583333333
field stddev 12101.902025784
field sum 66525.5
field sqrsum 1469887188.25
field min 2700
field max 29059
statistic mcsl_rtp.core7.sink 	EoP-network-latency-ns
field count 6
field mean 98679
field stddev 28800.537383875
field sum 592074
field sqrsum 62572625014
field min 61297
field max 132583
statistic mcsl_rtp.core7.sink 	EoP-queueing-time-ns
field count 6
field mean 11075.583333333
field stddev 12098.874949419
field sum 66453.5
field sqrsum 1467925152.25
field min 2688
field max 29043
statistic mcsl_rtp.core7.sink 	packet-network-latency-ns
field count 0
field mean 0
field stddev -1.#IND
field sum 0
field sqrsum 0
field min 0
field max 0
statistic mcsl_rtp.core7.sink 	network-latency-ns
field count 7127
field mean 91705.687806931
field stddev 27541.653127974
field sum 653586437
field sqrsum 65342968720303
field min 37249
field max 132597
statistic mcsl_rtp.core7.sink 	end-to-end-latency-ns
field count 7127
field mean 8146.5634909499
field stddev 8166.9270156036
field sum 58060558
field sqrsum 948288936021
field min 7.9999999999934
field max 29059
statistic mcsl_rtp.core7.sink 	number-received-packets
field count 1
field mean 6
field stddev -1.#IND
field sum 6
field sqrsum 36
field min 6
field max 6
scalar mcsl_rtp.core7.sink 	Sink-Total-BW-MBps 	66.366665036367
statistic mcsl_rtp.router7.port[0].sched 	link-utilization
field count 1
field mean 6.6278355123477
field stddev -1.#IND
field sum 6.6278355123477
field sqrsum 43.928203578738
field min 6.6278355123477
field max 6.6278355123477
statistic mcsl_rtp.router7.port[1].sched 	link-utilization
field count 1
field mean 3.3183409691958
field stddev -1.#IND
field sum 3.3183409691958
field sqrsum 11.011386787843
field min 3.3183409691958
field max 3.3183409691958
scalar mcsl_rtp.core8.sink 	flit-per-vc-0 	3057
scalar mcsl_rtp.core8.sink 	flit-per-vc-1 	0
statistic mcsl_rtp.core8.sink 	SoP-end-to-end-latency-ns
field count 4
field mean 14818.125
field stddev 13743.95087772
field sum 59272.5
field sqrsum 1444995871.25
field min 2732
field max 29079
statistic mcsl_rtp.core8.sink 	SoP-E2E-Latency-Hist
field count 4
field mean 14817.25
field stddev 13743.811998496
field sum 59269
field sqrsum 1444880695
field min 2731
field max 29078
attr type  int
bin	-INF	0
bin	-10495	0
bin	-10231	0
bin	-9967	0
bin	-9703	0
bin	-9439	0
bin	-9175	0
bin	-8911	0
bin	-8647	0
bin	-8383	0
bin	-8119	0
bin	-7855	0
bin	-7591	0
bin	-7327	0
bin	-7063	0
bin	-6799	0
bin	-6535	0
bin	-6271	0
bin	-6007	0
bin	-5743	0
bin	-5479	0
bin	-5215	0
bin	-4951	0
bin	-4687	0
bin	-4423	0
bin	-4159	0
bin	-3895	0
bin	-3631	0
bin	-3367	0
bin	-3103	0
bin	-2839	0
bin	-2575	0
bin	-2311	0
bin	-2047	0
bin	-1783	0
bin	-1519	0
bin	-1255	0
bin	-991	0
bin	-727	0
bin	-463	0
bin	-199	0
bin	65	0
bin	329	0
bin	593	0
bin	857	0
bin	1121	0
bin	1385	0
bin	1649	0
bin	1913	0
bin	2177	0
bin	2441	0
bin	2705	1
bin	2969	0
bin	3233	1
bin	3497	0
bin	3761	0
bin	4025	0
bin	4289	0
bin	4553	0
bin	4817	0
bin	5081	0
bin	5345	0
bin	5609	0
bin	5873	0
bin	6137	0
bin	6401	0
bin	6665	0
bin	6929	0
bin	7193	0
bin	7457	0
bin	7721	0
bin	7985	0
bin	8249	0
bin	8513	0
bin	8777	0
bin	9041	0
bin	9305	0
bin	9569	0
bin	9833	0
bin	10097	0
bin	10361	0
bin	10625	0
bin	10889	0
bin	11153	0
bin	11417	0
bin	11681	0
bin	11945	0
bin	12209	0
bin	12473	0
bin	12737	0
bin	13001	0
bin	13265	0
bin	13529	0
bin	13793	0
bin	14057	0
bin	14321	0
bin	14585	0
bin	14849	0
bin	15113	0
bin	15377	0
bin	15641	0
bin	15905	0
bin	16169	0
bin	16433	0
bin	16697	0
bin	16961	0
bin	17225	0
bin	17489	0
bin	17753	0
bin	18017	0
bin	18281	0
bin	18545	0
bin	18809	0
bin	19073	0
bin	19337	0
bin	19601	0
bin	19865	0
bin	20129	0
bin	20393	0
bin	20657	0
bin	20921	0
bin	21185	0
bin	21449	0
bin	21713	0
bin	21977	0
bin	22241	0
bin	22505	0
bin	22769	0
bin	23033	0
bin	23297	0
bin	23561	0
bin	23825	0
bin	24089	1
bin	24353	0
bin	24617	0
bin	24881	0
bin	25145	0
bin	25409	0
bin	25673	0
bin	25937	0
bin	26201	0
bin	26465	0
bin	26729	0
bin	26993	0
bin	27257	0
bin	27521	0
bin	27785	0
bin	28049	0
bin	28313	0
bin	28577	0
bin	28841	1
bin	29105	0
bin	29369	0
bin	29633	0
bin	29897	0
bin	30161	0
bin	30425	0
bin	30689	0
bin	30953	0
bin	31217	0
bin	31481	0
bin	31745	0
bin	32009	0
bin	32273	0
bin	32537	0
bin	32801	0
bin	33065	0
bin	33329	0
bin	33593	0
bin	33857	0
bin	34121	0
bin	34385	0
bin	34649	0
bin	34913	0
bin	35177	0
bin	35441	0
bin	35705	0
bin	35969	0
bin	36233	0
bin	36497	0
bin	36761	0
bin	37025	0
bin	37289	0
bin	37553	0
bin	37817	0
bin	38081	0
bin	38345	0
bin	38609	0
bin	38873	0
bin	39137	0
bin	39401	0
bin	39665	0
bin	39929	0
bin	40193	0
bin	40457	0
bin	40721	0
bin	40985	0
bin	41249	0
bin	41513	0
bin	41777	0
bin	42041	0
bin	42305	0
statistic mcsl_rtp.core8.sink 	SoP-network-latency-ns
field count 4
field mean 105174
field stddev 33006.846663483
field sum 420696
field sqrsum 47514636884
field min 61317
field max 132615
statistic mcsl_rtp.core8.sink 	SoP-queueing-time-ns
field count 4
field mean 14798.125
field stddev 13743.95087772
field sum 59192.5
field sqrsum 1442626571.25
field min 2712
field max 29059
statistic mcsl_rtp.core8.sink 	EoP-end-to-end-latency-ns
field count 4
field mean 4955.125
field stddev 2278.1783795758
field sum 19820.5
field sqrsum 113783345.25
field min 2635
field max 7147.5
statistic mcsl_rtp.core8.sink 	EoP-network-latency-ns
field count 4
field mean 95311
field stddev 39933.078485553
field sum 381244
field sqrsum 41120699156
field min 40601
field max 136541
statistic mcsl_rtp.core8.sink 	EoP-queueing-time-ns
field count 4
field mean 4935.125
field stddev 2278.1783795758
field sum 19740.5
field sqrsum 112992125.25
field min 2615
field max 7127.5
statistic mcsl_rtp.core8.sink 	packet-network-latency-ns
field count 0
field mean 0
field stddev -1.#IND
field sum 0
field sqrsum 0
field min 0
field max 0
statistic mcsl_rtp.core8.sink 	network-latency-ns
field count 3057
field mean 101744.76251227
field stddev 31011.847960227
field sum 311033739
field sqrsum 34585115193561
field min 37241
field max 136541
statistic mcsl_rtp.core8.sink 	end-to-end-latency-ns
field count 3057
field mean 6800.6280667321
field stddev 8244.5837925279
field sum 20789520
field sqrsum 349107776009
field min 19.999999999999
field max 31687
statistic mcsl_rtp.core8.sink 	number-received-packets
field count 1
field mean 4
field stddev -1.#IND
field sum 4
field sqrsum 16
field min 4
field max 4
scalar mcsl_rtp.core8.sink 	Sink-Total-BW-MBps 	28.46680160182
statistic mcsl_rtp.router8.port[0].sched 	link-utilization
field count 1
field mean 3.3216001787909
field stddev -1.#IND
field sum 3.3216001787909
field sqrsum 11.033027747744
field min 3.3216001787909
field max 3.3216001787909
statistic mcsl_rtp.router8.port[1].sched 	link-utilization
field count 1
field mean 1.4233433903229
field stddev -1.#IND
field sum 1.4233433903229
field sqrsum 2.025906406776
field min 1.4233433903229
field max 1.4233433903229
scalar mcsl_rtp.core9.sink 	flit-per-vc-0 	7435
scalar mcsl_rtp.core9.sink 	flit-per-vc-1 	0
statistic mcsl_rtp.core9.sink 	SoP-end-to-end-latency-ns
field count 8
field mean 9417.0625
field stddev 21092.255248309
field sum 75336.5
field sqrsum 3823631149.25
field min 16.000000000011
field max 61439
statistic mcsl_rtp.core9.sink 	SoP-E2E-Latency-Hist
field count 8
field mean 9416.5
field stddev 21092.068245128
field sum 75332
field sqrsum 3823491178
field min 16
field max 61438
attr type  int
bin	-INF	0
bin	-30773	0
bin	-30158	0
bin	-29543	0
bin	-28928	0
bin	-28313	0
bin	-27698	0
bin	-27083	0
bin	-26468	0
bin	-25853	0
bin	-25238	0
bin	-24623	0
bin	-24008	0
bin	-23393	0
bin	-22778	0
bin	-22163	0
bin	-21548	0
bin	-20933	0
bin	-20318	0
bin	-19703	0
bin	-19088	0
bin	-18473	0
bin	-17858	0
bin	-17243	0
bin	-16628	0
bin	-16013	0
bin	-15398	0
bin	-14783	0
bin	-14168	0
bin	-13553	0
bin	-12938	0
bin	-12323	0
bin	-11708	0
bin	-11093	0
bin	-10478	0
bin	-9863	0
bin	-9248	0
bin	-8633	0
bin	-8018	0
bin	-7403	0
bin	-6788	0
bin	-6173	0
bin	-5558	0
bin	-4943	0
bin	-4328	0
bin	-3713	0
bin	-3098	0
bin	-2483	0
bin	-1868	0
bin	-1253	0
bin	-638	0
bin	-23	3
bin	592	0
bin	1207	0
bin	1822	0
bin	2437	1
bin	3052	1
bin	3667	2
bin	4282	0
bin	4897	0
bin	5512	0
bin	6127	0
bin	6742	0
bin	7357	0
bin	7972	0
bin	8587	0
bin	9202	0
bin	9817	0
bin	10432	0
bin	11047	0
bin	11662	0
bin	12277	0
bin	12892	0
bin	13507	0
bin	14122	0
bin	14737	0
bin	15352	0
bin	15967	0
bin	16582	0
bin	17197	0
bin	17812	0
bin	18427	0
bin	19042	0
bin	19657	0
bin	20272	0
bin	20887	0
bin	21502	0
bin	22117	0
bin	22732	0
bin	23347	0
bin	23962	0
bin	24577	0
bin	25192	0
bin	25807	0
bin	26422	0
bin	27037	0
bin	27652	0
bin	28267	0
bin	28882	0
bin	29497	0
bin	30112	0
bin	30727	0
bin	31342	0
bin	31957	0
bin	32572	0
bin	33187	0
bin	33802	0
bin	34417	0
bin	35032	0
bin	35647	0
bin	36262	0
bin	36877	0
bin	37492	0
bin	38107	0
bin	38722	0
bin	39337	0
bin	39952	0
bin	40567	0
bin	41182	0
bin	41797	0
bin	42412	0
bin	43027	0
bin	43642	0
bin	44257	0
bin	44872	0
bin	45487	0
bin	46102	0
bin	46717	0
bin	47332	0
bin	47947	0
bin	48562	0
bin	49177	0
bin	49792	0
bin	50407	0
bin	51022	0
bin	51637	0
bin	52252	0
bin	52867	0
bin	53482	0
bin	54097	0
bin	54712	0
bin	55327	0
bin	55942	0
bin	56557	0
bin	57172	0
bin	57787	0
bin	58402	0
bin	59017	0
bin	59632	0
bin	60247	0
bin	60862	1
bin	61477	0
bin	62092	0
bin	62707	0
bin	63322	0
bin	63937	0
bin	64552	0
bin	65167	0
bin	65782	0
bin	66397	0
bin	67012	0
bin	67627	0
bin	68242	0
bin	68857	0
bin	69472	0
bin	70087	0
bin	70702	0
bin	71317	0
bin	71932	0
bin	72547	0
bin	73162	0
bin	73777	0
bin	74392	0
bin	75007	0
bin	75622	0
bin	76237	0
bin	76852	0
bin	77467	0
bin	78082	0
bin	78697	0
bin	79312	0
bin	79927	0
bin	80542	0
bin	81157	0
bin	81772	0
bin	82387	0
bin	83002	0
bin	83617	0
bin	84232	0
bin	84847	0
bin	85462	0
bin	86077	0
bin	86692	0
bin	87307	0
bin	87922	0
bin	88537	0
bin	89152	0
bin	89767	0
bin	90382	0
bin	90997	0
bin	91612	0
bin	92227	0
statistic mcsl_rtp.core9.sink 	SoP-network-latency-ns
field count 8
field mean 125291
field stddev 43305.339373866
field sum 1002328
field sqrsum 138710144376
field min 40617
field max 167465
statistic mcsl_rtp.core9.sink 	SoP-queueing-time-ns
field count 8
field mean 9397.5625
field stddev 21091.895788663
field sum 75180.5
field sqrsum 3820589923.25
field min 2.8455013071824e-012
field max 61419
statistic mcsl_rtp.core9.sink 	EoP-end-to-end-latency-ns
field count 8
field mean 10905.0625
field stddev 13141.08625766
field sum 87240.5
field sqrsum 2160180141.25
field min 2831
field max 32217.5
statistic mcsl_rtp.core9.sink 	EoP-network-latency-ns
field count 8
field mean 126779
field stddev 43524.64857001
field sum 1014232
field sqrsum 141844083960
field min 40301
field max 171549
statistic mcsl_rtp.core9.sink 	EoP-queueing-time-ns
field count 8
field mean 10885.062375
field stddev 13139.828015122
field sum 87080.499
field sqrsum 2156462225.13
field min 2811
field max 32195.5
statistic mcsl_rtp.core9.sink 	packet-network-latency-ns
field count 0
field mean 0
field stddev -1.#IND
field sum 0
field sqrsum 0
field min 0
field max 0
statistic mcsl_rtp.core9.sink 	network-latency-ns
field count 7435
field mean 129518.31620713
field stddev 33822.879829005
field sum 962968681
field sqrsum 1.3322648296758e+014
field min 37245
field max 171549
statistic mcsl_rtp.core9.sink 	end-to-end-latency-ns
field count 7435
field mean 11446.07061197
field stddev 12021.98342186
field sum 85101535
field sqrsum 2048499965627
field min 13
field max 63871
statistic mcsl_rtp.core9.sink 	number-received-packets
field count 1
field mean 8
field stddev -1.#IND
field sum 8
field sqrsum 64
field min 8
field max 8
scalar mcsl_rtp.core9.sink 	Sink-Total-BW-MBps 	69.234762809792
statistic mcsl_rtp.router9.port[0].sched 	link-utilization
field count 1
field mean 3.3821283569859
field stddev -1.#IND
field sum 3.3821283569859
field sqrsum 11.438792223128
field min 3.3821283569859
field max 3.3821283569859
statistic mcsl_rtp.router9.port[1].sched 	link-utilization
field count 1
field mean 3.4617461913808
field stddev -1.#IND
field sum 3.4617461913808
field sqrsum 11.983686693539
field min 3.4617461913808
field max 3.4617461913808
scalar mcsl_rtp.core10.sink 	flit-per-vc-0 	10768
scalar mcsl_rtp.core10.sink 	flit-per-vc-1 	0
statistic mcsl_rtp.core10.sink 	SoP-end-to-end-latency-ns
field count 8
field mean 4137.375
field stddev 7343.0208543798
field sum 33099
field sqrsum 514382662
field min 11.500000000004
field max 21036
statistic mcsl_rtp.core10.sink 	SoP-E2E-Latency-Hist
field count 8
field mean 4136.875
field stddev 7342.9322176887
field sum 33095
field sqrsum 514340453
field min 11
field max 21035
attr type  int
bin	-INF	0
bin	-10577	0
bin	-10366	0
bin	-10155	0
bin	-9944	0
bin	-9733	0
bin	-9522	0
bin	-9311	0
bin	-9100	0
bin	-8889	0
bin	-8678	0
bin	-8467	0
bin	-8256	0
bin	-8045	0
bin	-7834	0
bin	-7623	0
bin	-7412	0
bin	-7201	0
bin	-6990	0
bin	-6779	0
bin	-6568	0
bin	-6357	0
bin	-6146	0
bin	-5935	0
bin	-5724	0
bin	-5513	0
bin	-5302	0
bin	-5091	0
bin	-4880	0
bin	-4669	0
bin	-4458	0
bin	-4247	0
bin	-4036	0
bin	-3825	0
bin	-3614	0
bin	-3403	0
bin	-3192	0
bin	-2981	0
bin	-2770	0
bin	-2559	0
bin	-2348	0
bin	-2137	0
bin	-1926	0
bin	-1715	0
bin	-1504	0
bin	-1293	0
bin	-1082	0
bin	-871	0
bin	-660	0
bin	-449	0
bin	-238	0
bin	-27	5
bin	184	0
bin	395	0
bin	606	0
bin	817	0
bin	1028	0
bin	1239	0
bin	1450	0
bin	1661	0
bin	1872	0
bin	2083	0
bin	2294	0
bin	2505	0
bin	2716	0
bin	2927	0
bin	3138	0
bin	3349	0
bin	3560	0
bin	3771	0
bin	3982	0
bin	4193	0
bin	4404	0
bin	4615	0
bin	4826	0
bin	5037	0
bin	5248	0
bin	5459	1
bin	5670	0
bin	5881	0
bin	6092	0
bin	6303	1
bin	6514	0
bin	6725	0
bin	6936	0
bin	7147	0
bin	7358	0
bin	7569	0
bin	7780	0
bin	7991	0
bin	8202	0
bin	8413	0
bin	8624	0
bin	8835	0
bin	9046	0
bin	9257	0
bin	9468	0
bin	9679	0
bin	9890	0
bin	10101	0
bin	10312	0
bin	10523	0
bin	10734	0
bin	10945	0
bin	11156	0
bin	11367	0
bin	11578	0
bin	11789	0
bin	12000	0
bin	12211	0
bin	12422	0
bin	12633	0
bin	12844	0
bin	13055	0
bin	13266	0
bin	13477	0
bin	13688	0
bin	13899	0
bin	14110	0
bin	14321	0
bin	14532	0
bin	14743	0
bin	14954	0
bin	15165	0
bin	15376	0
bin	15587	0
bin	15798	0
bin	16009	0
bin	16220	0
bin	16431	0
bin	16642	0
bin	16853	0
bin	17064	0
bin	17275	0
bin	17486	0
bin	17697	0
bin	17908	0
bin	18119	0
bin	18330	0
bin	18541	0
bin	18752	0
bin	18963	0
bin	19174	0
bin	19385	0
bin	19596	0
bin	19807	0
bin	20018	0
bin	20229	0
bin	20440	0
bin	20651	0
bin	20862	1
bin	21073	0
bin	21284	0
bin	21495	0
bin	21706	0
bin	21917	0
bin	22128	0
bin	22339	0
bin	22550	0
bin	22761	0
bin	22972	0
bin	23183	0
bin	23394	0
bin	23605	0
bin	23816	0
bin	24027	0
bin	24238	0
bin	24449	0
bin	24660	0
bin	24871	0
bin	25082	0
bin	25293	0
bin	25504	0
bin	25715	0
bin	25926	0
bin	26137	0
bin	26348	0
bin	26559	0
bin	26770	0
bin	26981	0
bin	27192	0
bin	27403	0
bin	27614	0
bin	27825	0
bin	28036	0
bin	28247	0
bin	28458	0
bin	28669	0
bin	28880	0
bin	29091	0
bin	29302	0
bin	29513	0
bin	29724	0
bin	29935	0
bin	30146	0
bin	30357	0
bin	30568	0
bin	30779	0
bin	30990	0
bin	31201	0
bin	31412	0
bin	31623	0
statistic mcsl_rtp.core10.sink 	SoP-network-latency-ns
field count 8
field mean 110573.5
field stddev 59867.517419716
field sum 884588
field sqrsum 122900828712
field min 43695
field max 203715
statistic mcsl_rtp.core10.sink 	SoP-queueing-time-ns
field count 8
field mean 4118.875
field stddev 7340.6710463495
field sum 32951
field sqrsum 512919210
field min 3.4999999999998
field max 21016
statistic mcsl_rtp.core10.sink 	EoP-end-to-end-latency-ns
field count 8
field mean 16243.375
field stddev 14042.998351365
field sum 129947
field sqrsum 3491218470
field min 3288
field max 34106
statistic mcsl_rtp.core10.sink 	EoP-network-latency-ns
field count 8
field mean 122679.5
field stddev 55333.610976641
field sum 981436
field sqrsum 141834737288
field min 51539
field max 186099
statistic mcsl_rtp.core10.sink 	EoP-queueing-time-ns
field count 8
field mean 16228.874875
field stddev 14039.013832621
field sum 129830.999
field sqrsum 3486668403.415
field min 3276
field max 34080
statistic mcsl_rtp.core10.sink 	packet-network-latency-ns
field count 0
field mean 0
field stddev -1.#IND
field sum 0
field sqrsum 0
field min 0
field max 0
statistic mcsl_rtp.core10.sink 	network-latency-ns
field count 10768
field mean 114910.74442793
field stddev 50107.266366576
field sum 1237358896
field sqrsum 1.6921894944667e+014
field min 43695
field max 207123
statistic mcsl_rtp.core10.sink 	end-to-end-latency-ns
field count 10768
field mean 10887.603872585
field stddev 9656.3048856503
field sum 117237718.5
field sqrsum 2280398398242.3
field min 11.500000000004
field max 34106
statistic mcsl_rtp.core10.sink 	number-received-packets
field count 1
field mean 8
field stddev -1.#IND
field sum 8
field sqrsum 64
field min 8
field max 8
scalar mcsl_rtp.core10.sink 	Sink-Total-BW-MBps 	100.27167800079
statistic mcsl_rtp.router10.port[0].sched 	link-utilization
field count 1
field mean 4.5293701344657
field stddev -1.#IND
field sum 4.5293701344657
field sqrsum 20.51519381499
field min 4.5293701344657
field max 4.5293701344657
statistic mcsl_rtp.router10.port[1].sched 	link-utilization
field count 1
field mean 5.0135955600253
field stddev -1.#IND
field sum 5.0135955600253
field sqrsum 25.136140439506
field min 5.0135955600253
field max 5.0135955600253
scalar mcsl_rtp.core11.sink 	flit-per-vc-0 	15924
scalar mcsl_rtp.core11.sink 	flit-per-vc-1 	0
statistic mcsl_rtp.core11.sink 	SoP-end-to-end-latency-ns
field count 14
field mean 8636.5
field stddev 14230.008609922
field sum 120911
field sqrsum 3676658737
field min 22
field max 34122
statistic mcsl_rtp.core11.sink 	SoP-E2E-Latency-Hist
field count 14
field mean 8636
field stddev 14229.831206091
field sum 120904
field sqrsum 3676472194
field min 22
field max 34121
attr type  int
bin	-INF	0
bin	-17028	0
bin	-16687	0
bin	-16346	0
bin	-16005	0
bin	-15664	0
bin	-15323	0
bin	-14982	0
bin	-14641	0
bin	-14300	0
bin	-13959	0
bin	-13618	0
bin	-13277	0
bin	-12936	0
bin	-12595	0
bin	-12254	0
bin	-11913	0
bin	-11572	0
bin	-11231	0
bin	-10890	0
bin	-10549	0
bin	-10208	0
bin	-9867	0
bin	-9526	0
bin	-9185	0
bin	-8844	0
bin	-8503	0
bin	-8162	0
bin	-7821	0
bin	-7480	0
bin	-7139	0
bin	-6798	0
bin	-6457	0
bin	-6116	0
bin	-5775	0
bin	-5434	0
bin	-5093	0
bin	-4752	0
bin	-4411	0
bin	-4070	0
bin	-3729	0
bin	-3388	0
bin	-3047	0
bin	-2706	0
bin	-2365	0
bin	-2024	0
bin	-1683	0
bin	-1342	0
bin	-1001	0
bin	-660	0
bin	-319	0
bin	22	10
bin	363	0
bin	704	0
bin	1045	0
bin	1386	0
bin	1727	0
bin	2068	0
bin	2409	0
bin	2750	0
bin	3091	0
bin	3432	0
bin	3773	0
bin	4114	0
bin	4455	0
bin	4796	0
bin	5137	0
bin	5478	0
bin	5819	0
bin	6160	0
bin	6501	0
bin	6842	0
bin	7183	0
bin	7524	0
bin	7865	0
bin	8206	0
bin	8547	0
bin	8888	0
bin	9229	0
bin	9570	0
bin	9911	0
bin	10252	0
bin	10593	0
bin	10934	0
bin	11275	0
bin	11616	0
bin	11957	0
bin	12298	0
bin	12639	0
bin	12980	0
bin	13321	0
bin	13662	0
bin	14003	0
bin	14344	0
bin	14685	0
bin	15026	0
bin	15367	0
bin	15708	0
bin	16049	0
bin	16390	0
bin	16731	0
bin	17072	0
bin	17413	0
bin	17754	0
bin	18095	0
bin	18436	0
bin	18777	0
bin	19118	0
bin	19459	0
bin	19800	0
bin	20141	0
bin	20482	0
bin	20823	0
bin	21164	0
bin	21505	0
bin	21846	0
bin	22187	0
bin	22528	0
bin	22869	0
bin	23210	0
bin	23551	0
bin	23892	0
bin	24233	0
bin	24574	0
bin	24915	0
bin	25256	1
bin	25597	0
bin	25938	0
bin	26279	0
bin	26620	0
bin	26961	0
bin	27302	0
bin	27643	0
bin	27984	0
bin	28325	0
bin	28666	0
bin	29007	0
bin	29348	1
bin	29689	0
bin	30030	0
bin	30371	0
bin	30712	0
bin	31053	0
bin	31394	1
bin	31735	0
bin	32076	0
bin	32417	0
bin	32758	0
bin	33099	0
bin	33440	0
bin	33781	1
bin	34122	0
bin	34463	0
bin	34804	0
bin	35145	0
bin	35486	0
bin	35827	0
bin	36168	0
bin	36509	0
bin	36850	0
bin	37191	0
bin	37532	0
bin	37873	0
bin	38214	0
bin	38555	0
bin	38896	0
bin	39237	0
bin	39578	0
bin	39919	0
bin	40260	0
bin	40601	0
bin	40942	0
bin	41283	0
bin	41624	0
bin	41965	0
bin	42306	0
bin	42647	0
bin	42988	0
bin	43329	0
bin	43670	0
bin	44011	0
bin	44352	0
bin	44693	0
bin	45034	0
bin	45375	0
bin	45716	0
bin	46057	0
bin	46398	0
bin	46739	0
bin	47080	0
bin	47421	0
bin	47762	0
bin	48103	0
bin	48444	0
bin	48785	0
bin	49126	0
bin	49467	0
bin	49808	0
bin	50149	0
bin	50490	0
bin	50831	0
bin	51172	0
statistic mcsl_rtp.core11.sink 	SoP-network-latency-ns
field count 14
field mean 115417.28571429
field stddev 39543.937307231
field sum 1615842
field sqrsum 206824496494
field min 50375
field max 176611
statistic mcsl_rtp.core11.sink 	SoP-queueing-time-ns
field count 14
field mean 8612.7857142857
field stddev 14230.298700463
field sum 120579
field sqrsum 3671039303
field min 6.1806935369962e-012
field max 34096
statistic mcsl_rtp.core11.sink 	EoP-end-to-end-latency-ns
field count 14
field mean 12592.5
field stddev 21342.582742381
field sum 176295
field sqrsum 8141570683
field min 2516
field max 63441
statistic mcsl_rtp.core11.sink 	EoP-network-latency-ns
field count 14
field mean 119373.28571429
field stddev 36880.947008175
field sum 1671226
field sqrsum 217182394070
field min 53431
field max 166705
statistic mcsl_rtp.core11.sink 	EoP-queueing-time-ns
field count 14
field mean 12571.214
field stddev 21340.292983635
field sum 175996.996
field sqrsum 8132801260.229
field min 2496
field max 63415
statistic mcsl_rtp.core11.sink 	packet-network-latency-ns
field count 0
field mean 0
field stddev -1.#IND
field sum 0
field sqrsum 0
field min 0
field max 0
statistic mcsl_rtp.core11.sink 	network-latency-ns
field count 15924
field mean 121641.21539814
field stddev 33806.972899382
field sum 1937014714
field sqrsum 2.5381940254188e+014
field min 50375
field max 181283
statistic mcsl_rtp.core11.sink 	end-to-end-latency-ns
field count 15924
field mean 14027.902662648
field stddev 19897.970128259
field sum 223380322
field sqrsum 9437938307796
field min 17.999999999999
field max 63441
statistic mcsl_rtp.core11.sink 	number-received-packets
field count 1
field mean 14
field stddev -1.#IND
field sum 14
field sqrsum 196
field min 14
field max 14
scalar mcsl_rtp.core11.sink 	Sink-Total-BW-MBps 	148.28437968838
statistic mcsl_rtp.router11.port[0].sched 	link-utilization
field count 1
field mean 2.9090773643238
field stddev -1.#IND
field sum 2.9090773643238
field sqrsum 8.4627311116209
field min 2.9090773643238
field max 2.9090773643238
statistic mcsl_rtp.router11.port[1].sched 	link-utilization
field count 1
field mean 7.4142362275115
field stddev -1.#IND
field sum 7.4142362275115
field sqrsum 54.970898837343
field min 7.4142362275115
field max 7.4142362275115
scalar mcsl_rtp.core12.sink 	flit-per-vc-0 	2411
scalar mcsl_rtp.core12.sink 	flit-per-vc-1 	0
statistic mcsl_rtp.core12.sink 	SoP-end-to-end-latency-ns
field count 4
field mean 4855.875
field stddev 5583.8872716505
field sum 19423.5
field sqrsum 187857479.25
field min 18.500000000007
field max 9894
statistic mcsl_rtp.core12.sink 	SoP-E2E-Latency-Hist
field count 4
field mean 4855.25
field stddev 5583.4545683355
field sum 19421
field sqrsum 187818705
field min 18
field max 9893
attr type  int
bin	-INF	0
bin	-4944	0
bin	-4845	0
bin	-4746	0
bin	-4647	0
bin	-4548	0
bin	-4449	0
bin	-4350	0
bin	-4251	0
bin	-4152	0
bin	-4053	0
bin	-3954	0
bin	-3855	0
bin	-3756	0
bin	-3657	0
bin	-3558	0
bin	-3459	0
bin	-3360	0
bin	-3261	0
bin	-3162	0
bin	-3063	0
bin	-2964	0
bin	-2865	0
bin	-2766	0
bin	-2667	0
bin	-2568	0
bin	-2469	0
bin	-2370	0
bin	-2271	0
bin	-2172	0
bin	-2073	0
bin	-1974	0
bin	-1875	0
bin	-1776	0
bin	-1677	0
bin	-1578	0
bin	-1479	0
bin	-1380	0
bin	-1281	0
bin	-1182	0
bin	-1083	0
bin	-984	0
bin	-885	0
bin	-786	0
bin	-687	0
bin	-588	0
bin	-489	0
bin	-390	0
bin	-291	0
bin	-192	0
bin	-93	0
bin	6	2
bin	105	0
bin	204	0
bin	303	0
bin	402	0
bin	501	0
bin	600	0
bin	699	0
bin	798	0
bin	897	0
bin	996	0
bin	1095	0
bin	1194	0
bin	1293	0
bin	1392	0
bin	1491	0
bin	1590	0
bin	1689	0
bin	1788	0
bin	1887	0
bin	1986	0
bin	2085	0
bin	2184	0
bin	2283	0
bin	2382	0
bin	2481	0
bin	2580	0
bin	2679	0
bin	2778	0
bin	2877	0
bin	2976	0
bin	3075	0
bin	3174	0
bin	3273	0
bin	3372	0
bin	3471	0
bin	3570	0
bin	3669	0
bin	3768	0
bin	3867	0
bin	3966	0
bin	4065	0
bin	4164	0
bin	4263	0
bin	4362	0
bin	4461	0
bin	4560	0
bin	4659	0
bin	4758	0
bin	4857	0
bin	4956	0
bin	5055	0
bin	5154	0
bin	5253	0
bin	5352	0
bin	5451	0
bin	5550	0
bin	5649	0
bin	5748	0
bin	5847	0
bin	5946	0
bin	6045	0
bin	6144	0
bin	6243	0
bin	6342	0
bin	6441	0
bin	6540	0
bin	6639	0
bin	6738	0
bin	6837	0
bin	6936	0
bin	7035	0
bin	7134	0
bin	7233	0
bin	7332	0
bin	7431	0
bin	7530	0
bin	7629	0
bin	7728	0
bin	7827	0
bin	7926	0
bin	8025	0
bin	8124	0
bin	8223	0
bin	8322	0
bin	8421	0
bin	8520	0
bin	8619	0
bin	8718	0
bin	8817	0
bin	8916	0
bin	9015	0
bin	9114	0
bin	9213	0
bin	9312	0
bin	9411	1
bin	9510	0
bin	9609	0
bin	9708	0
bin	9807	1
bin	9906	0
bin	10005	0
bin	10104	0
bin	10203	0
bin	10302	0
bin	10401	0
bin	10500	0
bin	10599	0
bin	10698	0
bin	10797	0
bin	10896	0
bin	10995	0
bin	11094	0
bin	11193	0
bin	11292	0
bin	11391	0
bin	11490	0
bin	11589	0
bin	11688	0
bin	11787	0
bin	11886	0
bin	11985	0
bin	12084	0
bin	12183	0
bin	12282	0
bin	12381	0
bin	12480	0
bin	12579	0
bin	12678	0
bin	12777	0
bin	12876	0
bin	12975	0
bin	13074	0
bin	13173	0
bin	13272	0
bin	13371	0
bin	13470	0
bin	13569	0
bin	13668	0
bin	13767	0
bin	13866	0
bin	13965	0
bin	14064	0
bin	14163	0
bin	14262	0
bin	14361	0
bin	14460	0
bin	14559	0
bin	14658	0
bin	14757	0
bin	14856	0
statistic mcsl_rtp.core12.sink 	SoP-network-latency-ns
field count 4
field mean 99775
field stddev 38263.100693314
field sum 399100
field sqrsum 44212397124
field min 47115
field max 138691
statistic mcsl_rtp.core12.sink 	SoP-queueing-time-ns
field count 4
field mean 4837.875
field stddev 5581.5789040826
field sum 19351.5
field sqrsum 187082207.25
field min 2.499999999999
field max 9874
statistic mcsl_rtp.core12.sink 	EoP-end-to-end-latency-ns
field count 4
field mean 2736.875
field stddev 640.92958206551
field sum 10947.5
field sqrsum 31194311.25
field min 1982
field max 3443
statistic mcsl_rtp.core12.sink 	EoP-network-latency-ns
field count 4
field mean 97656
field stddev 42439.727064784
field sum 390624
field sqrsum 43550168644
field min 39697
field max 141719
statistic mcsl_rtp.core12.sink 	EoP-queueing-time-ns
field count 4
field mean 2718.875
field stddev 640.00681962512
field sum 10875.5
field sqrsum 30797951.25
field min 1966
field max 3423
statistic mcsl_rtp.core12.sink 	packet-network-latency-ns
field count 0
field mean 0
field stddev -1.#IND
field sum 0
field sqrsum 0
field min 0
field max 0
statistic mcsl_rtp.core12.sink 	network-latency-ns
field count 2411
field mean 97956.774367482
field stddev 34962.455571331
field sum 236173783
field sqrsum 26080741624827
field min 37249
field max 141719
statistic mcsl_rtp.core12.sink 	end-to-end-latency-ns
field count 2411
field mean 4391.4894234757
field stddev 3862.0231591938
field sum 10587881
field sqrsum 82442254574.5
field min 18.500000000007
field max 12893
statistic mcsl_rtp.core12.sink 	number-received-packets
field count 1
field mean 4
field stddev -1.#IND
field sum 4
field sqrsum 16
field min 4
field max 4
scalar mcsl_rtp.core12.sink 	Sink-Total-BW-MBps 	22.451245882234
statistic mcsl_rtp.router12.port[0].sched 	link-utilization
field count 1
field mean 1.4657131150594
field stddev -1.#IND
field sum 1.4657131150594
field sqrsum 2.1483149356572
field min 1.4657131150594
field max 1.4657131150594
statistic mcsl_rtp.router12.port[1].sched 	link-utilization
field count 1
field mean 1.1225649048311
field stddev -1.#IND
field sum 1.1225649048311
field sqrsum 1.2601519655584
field min 1.1225649048311
field max 1.1225649048311
scalar mcsl_rtp.core13.sink 	flit-per-vc-0 	1398
scalar mcsl_rtp.core13.sink 	flit-per-vc-1 	0
statistic mcsl_rtp.core13.sink 	SoP-end-to-end-latency-ns
field count 2
field mean 2530.25
field stddev 752.71516857307
field sum 5060.5
field sqrsum 13370910.25
field min 1998
field max 3062.5
statistic mcsl_rtp.core13.sink 	SoP-E2E-Latency-Hist
field count 2
field mean 2530
field stddev 752.36161518249
field sum 5060
field sqrsum 13367848
field min 1998
field max 3062
attr type  int
bin	-INF	0
bin	1463	0
bin	1474	0
bin	1485	0
bin	1496	0
bin	1507	0
bin	1518	0
bin	1529	0
bin	1540	0
bin	1551	0
bin	1562	0
bin	1573	0
bin	1584	0
bin	1595	0
bin	1606	0
bin	1617	0
bin	1628	0
bin	1639	0
bin	1650	0
bin	1661	0
bin	1672	0
bin	1683	0
bin	1694	0
bin	1705	0
bin	1716	0
bin	1727	0
bin	1738	0
bin	1749	0
bin	1760	0
bin	1771	0
bin	1782	0
bin	1793	0
bin	1804	0
bin	1815	0
bin	1826	0
bin	1837	0
bin	1848	0
bin	1859	0
bin	1870	0
bin	1881	0
bin	1892	0
bin	1903	0
bin	1914	0
bin	1925	0
bin	1936	0
bin	1947	0
bin	1958	0
bin	1969	0
bin	1980	0
bin	1991	1
bin	2002	0
bin	2013	0
bin	2024	0
bin	2035	0
bin	2046	0
bin	2057	0
bin	2068	0
bin	2079	0
bin	2090	0
bin	2101	0
bin	2112	0
bin	2123	0
bin	2134	0
bin	2145	0
bin	2156	0
bin	2167	0
bin	2178	0
bin	2189	0
bin	2200	0
bin	2211	0
bin	2222	0
bin	2233	0
bin	2244	0
bin	2255	0
bin	2266	0
bin	2277	0
bin	2288	0
bin	2299	0
bin	2310	0
bin	2321	0
bin	2332	0
bin	2343	0
bin	2354	0
bin	2365	0
bin	2376	0
bin	2387	0
bin	2398	0
bin	2409	0
bin	2420	0
bin	2431	0
bin	2442	0
bin	2453	0
bin	2464	0
bin	2475	0
bin	2486	0
bin	2497	0
bin	2508	0
bin	2519	0
bin	2530	0
bin	2541	0
bin	2552	0
bin	2563	0
bin	2574	0
bin	2585	0
bin	2596	0
bin	2607	0
bin	2618	0
bin	2629	0
bin	2640	0
bin	2651	0
bin	2662	0
bin	2673	0
bin	2684	0
bin	2695	0
bin	2706	0
bin	2717	0
bin	2728	0
bin	2739	0
bin	2750	0
bin	2761	0
bin	2772	0
bin	2783	0
bin	2794	0
bin	2805	0
bin	2816	0
bin	2827	0
bin	2838	0
bin	2849	0
bin	2860	0
bin	2871	0
bin	2882	0
bin	2893	0
bin	2904	0
bin	2915	0
bin	2926	0
bin	2937	0
bin	2948	0
bin	2959	0
bin	2970	0
bin	2981	0
bin	2992	0
bin	3003	0
bin	3014	0
bin	3025	0
bin	3036	0
bin	3047	0
bin	3058	1
bin	3069	0
bin	3080	0
bin	3091	0
bin	3102	0
bin	3113	0
bin	3124	0
bin	3135	0
bin	3146	0
bin	3157	0
bin	3168	0
bin	3179	0
bin	3190	0
bin	3201	0
bin	3212	0
bin	3223	0
bin	3234	0
bin	3245	0
bin	3256	0
bin	3267	0
bin	3278	0
bin	3289	0
bin	3300	0
bin	3311	0
bin	3322	0
bin	3333	0
bin	3344	0
bin	3355	0
bin	3366	0
bin	3377	0
bin	3388	0
bin	3399	0
bin	3410	0
bin	3421	0
bin	3432	0
bin	3443	0
bin	3454	0
bin	3465	0
bin	3476	0
bin	3487	0
bin	3498	0
bin	3509	0
bin	3520	0
bin	3531	0
bin	3542	0
bin	3553	0
bin	3564	0
bin	3575	0
bin	3586	0
bin	3597	0
statistic mcsl_rtp.core13.sink 	SoP-network-latency-ns
field count 2
field mean 124047
field stddev 25014.609491255
field sum 248094
field sqrsum 31401047106
field min 106359
field max 141735
statistic mcsl_rtp.core13.sink 	SoP-queueing-time-ns
field count 2
field mean 2514.25
field stddev 752.71516857309
field sum 5028.5
field sqrsum 13209486.25
field min 1982
field max 3046.5
statistic mcsl_rtp.core13.sink 	EoP-end-to-end-latency-ns
field count 2
field mean 3734.25
field stddev 96.520075631992
field sum 7468.5
field sqrsum 27898562.25
field min 3666
field max 3802.5
statistic mcsl_rtp.core13.sink 	EoP-network-latency-ns
field count 2
field mean 125251
field stddev 24358.414398314
field sum 250502
field sqrsum 31968958354
field min 108027
field max 142475
statistic mcsl_rtp.core13.sink 	EoP-queueing-time-ns
field count 2
field mean 3718.25
field stddev 96.520075631964
field sum 7436.5
field sqrsum 27660082.25
field min 3650
field max 3786.5
statistic mcsl_rtp.core13.sink 	packet-network-latency-ns
field count 0
field mean 0
field stddev -1.#IND
field sum 0
field sqrsum 0
field min 0
field max 0
statistic mcsl_rtp.core13.sink 	network-latency-ns
field count 1398
field mean 124528.49642346
field stddev 17447.246267626
field sum 174090838
field sqrsum 22104526041286
field min 104377
field max 145511
statistic mcsl_rtp.core13.sink 	end-to-end-latency-ns
field count 1398
field mean 2717.2271101574
field stddev 1636.1806348611
field sum 3798683.5
field sqrsum 14061776425.75
field min 15.999999999996
field max 6838.5
statistic mcsl_rtp.core13.sink 	number-received-packets
field count 1
field mean 2
field stddev -1.#IND
field sum 2
field sqrsum 4
field min 2
field max 2
scalar mcsl_rtp.core13.sink 	Sink-Total-BW-MBps 	13.018184049508
statistic mcsl_rtp.router13.port[0].sched 	link-utilization
field count 1
field mean 1.4228777889522
field stddev -1.#IND
field sum 1.4228777889522
field sqrsum 2.0245812022935
field min 1.4228777889522
field max 1.4228777889522
statistic mcsl_rtp.router13.port[1].sched 	link-utilization
field count 1
field mean 0.65091071628115
field stddev -1.#IND
field sum 0.65091071628115
field sqrsum 0.42368476056964
field min 0.65091071628115
field max 0.65091071628115
scalar mcsl_rtp.core14.sink 	flit-per-vc-0 	0
scalar mcsl_rtp.core14.sink 	flit-per-vc-1 	0
statistic mcsl_rtp.core14.sink 	SoP-end-to-end-latency-ns
field count 0
field mean 0
field stddev -1.#IND
field sum 0
field sqrsum 0
field min 0
field max 0
statistic mcsl_rtp.core14.sink 	SoP-E2E-Latency-Hist
field count 0
field mean 0
field stddev -1.#IND
field sum 0
field sqrsum 0
field min 0
field max 0
attr type  int
bin	-INF	0
bin	-1	0
bin	0	0
bin	1	0
statistic mcsl_rtp.core14.sink 	SoP-network-latency-ns
field count 0
field mean 0
field stddev -1.#IND
field sum 0
field sqrsum 0
field min 0
field max 0
statistic mcsl_rtp.core14.sink 	SoP-queueing-time-ns
field count 0
field mean 0
field stddev -1.#IND
field sum 0
field sqrsum 0
field min 0
field max 0
statistic mcsl_rtp.core14.sink 	EoP-end-to-end-latency-ns
field count 0
field mean 0
field stddev -1.#IND
field sum 0
field sqrsum 0
field min 0
field max 0
statistic mcsl_rtp.core14.sink 	EoP-network-latency-ns
field count 0
field mean 0
field stddev -1.#IND
field sum 0
field sqrsum 0
field min 0
field max 0
statistic mcsl_rtp.core14.sink 	EoP-queueing-time-ns
field count 0
field mean 0
field stddev -1.#IND
field sum 0
field sqrsum 0
field min 0
field max 0
statistic mcsl_rtp.core14.sink 	packet-network-latency-ns
field count 0
field mean 0
field stddev -1.#IND
field sum 0
field sqrsum 0
field min 0
field max 0
statistic mcsl_rtp.core14.sink 	network-latency-ns
field count 0
field mean 0
field stddev -1.#IND
field sum 0
field sqrsum 0
field min 0
field max 0
statistic mcsl_rtp.core14.sink 	end-to-end-latency-ns
field count 0
field mean 0
field stddev -1.#IND
field sum 0
field sqrsum 0
field min 0
field max 0
statistic mcsl_rtp.core14.sink 	number-received-packets
field count 1
field mean 0
field stddev -1.#IND
field sum 0
field sqrsum 0
field min 0
field max 0
scalar mcsl_rtp.core14.sink 	Sink-Total-BW-MBps 	0
statistic mcsl_rtp.router14.port[0].sched 	link-utilization
field count 1
field mean 0
field stddev -1.#IND
field sum 0
field sqrsum 0
field min 0
field max 0
statistic mcsl_rtp.router14.port[1].sched 	link-utilization
field count 1
field mean 0
field stddev -1.#IND
field sum 0
field sqrsum 0
field min 0
field max 0
scalar mcsl_rtp.core15.sink 	flit-per-vc-0 	0
scalar mcsl_rtp.core15.sink 	flit-per-vc-1 	0
statistic mcsl_rtp.core15.sink 	SoP-end-to-end-latency-ns
field count 0
[...]
field min 11.240548292174
field max 11.240548292174
statistic mcsl_rtp.router18.port[1].sched 	link-utilization
field count 1
field mean 2.8559988080605
field stddev -1.#IND
field sum 2.8559988080605
field sqrsum 8.1567291916429
field min 2.8559988080605
field max 2.8559988080605
statistic mcsl_rtp.router18.port[2].sched 	link-utilization
field count 1
field mean 0.6853652177152
field stddev -1.#IND
field sum 0.6853652177152
field sqrsum 0.4697254816538
field min 0.6853652177152
field max 0.6853652177152
statistic mcsl_rtp.router18.port[3].sched 	link-utilization
field count 1
field mean 0
field stddev -1.#IND
field sum 0
field sqrsum 0
field min 0
field max 0
statistic mcsl_rtp.router19.port[0].sched 	link-utilization
field count 1
field mean 0
field stddev -1.#IND
field sum 0
field sqrsum 0
field min 0
field max 0
statistic mcsl_rtp.router19.port[1].sched 	link-utilization
field count 1
field mean 0
field stddev -1.#IND
field sum 0
field sqrsum 0
field min 0
field max 0
statistic mcsl_rtp.router19.port[2].sched 	link-utilization
field count 1
field mean 0
field stddev -1.#IND
field sum 0
field sqrsum 0
field min 0
field max 0
statistic mcsl_rtp.router19.port[3].sched 	link-utilization
field count 1
field mean 0
field stddev -1.#IND
field sum 0
field sqrsum 0
field min 0
field max 0
statistic mcsl_rtp.router20.port[0].sched 	link-utilization
field count 1
field mean 21.261686594405
field stddev -1.#IND
field sum 21.261686594405
field sqrsum 452.05931683872
field min 21.261686594405
field max 21.261686594405
statistic mcsl_rtp.router20.port[1].sched 	link-utilization
field count 1
field mean 5.5010801951801
field stddev -1.#IND
field sum 5.5010801951801
field sqrsum 30.261883313803
field min 5.5010801951801
field max 5.5010801951801
statistic mcsl_rtp.router20.port[2].sched 	link-utilization
field count 1
field mean 8.8482884493612
field stddev -1.#IND
field sum 8.8482884493612
field sqrsum 78.292208483099
field min 8.8482884493612
field max 8.8482884493612
statistic mcsl_rtp.router20.port[3].sched 	link-utilization
field count 1
field mean 0
field stddev -1.#IND
field sum 0
field sqrsum 0
field min 0
field max 0
statistic mcsl_rtp.router21.port[0].sched 	link-utilization
field count 1
field mean 7.4398443029016
field stddev -1.#IND
field sum 7.4398443029016
field sqrsum 55.351283251418
field min 7.4398443029016
field max 7.4398443029016
statistic mcsl_rtp.router21.port[1].sched 	link-utilization
field count 1
field mean 8.8180243602637
field stddev -1.#IND
field sum 8.8180243602637
field sqrsum 77.757553618204
field min 8.8180243602637
field max 8.8180243602637
statistic mcsl_rtp.router21.port[2].sched 	link-utilization
field count 1
field mean 8.686259172347
field stddev -1.#IND
field sum 8.686259172347
field sqrsum 75.451098409182
field min 8.686259172347
field max 8.686259172347
statistic mcsl_rtp.router21.port[3].sched 	link-utilization
field count 1
field mean 8.4734793459232
field stddev -1.#IND
field sum 8.4734793459232
field sqrsum 71.799852225787
field min 8.4734793459232
field max 8.4734793459232
statistic mcsl_rtp.router22.port[0].sched 	link-utilization
field count 1
field mean 1.4233433903229
field stddev -1.#IND
field sum 1.4233433903229
field sqrsum 2.025906406776
field min 1.4233433903229
field max 1.4233433903229
statistic mcsl_rtp.router22.port[1].sched 	link-utilization
field count 1
field mean 3.4617461913808
field stddev -1.#IND
field sum 3.4617461913808
field sqrsum 11.983686693539
field min 3.4617461913808
field max 3.4617461913808
statistic mcsl_rtp.router22.port[2].sched 	link-utilization
field count 1
field mean 5.6156181323798
field stddev -1.#IND
field sum 5.6156181323798
field sqrsum 31.535167008713
field min 5.6156181323798
field max 5.6156181323798
statistic mcsl_rtp.router22.port[3].sched 	link-utilization
field count 1
field mean 1.088110403397
field stddev -1.#IND
field sum 1.088110403397
field sqrsum 1.1839842499808
field min 1.088110403397
field max 1.088110403397
statistic mcsl_rtp.router23.port[0].sched 	link-utilization
field count 1
field mean 4.1769098968227
field stddev -1.#IND
field sum 4.1769098968227
field sqrsum 17.446576286176
field min 4.1769098968227
field max 4.1769098968227
statistic mcsl_rtp.router23.port[1].sched 	link-utilization
field count 1
field mean 7.097161694044
field stddev -1.#IND
field sum 7.097161694044
field sqrsum 50.369704111406
field min 7.097161694044
field max 7.097161694044
statistic mcsl_rtp.router23.port[2].sched 	link-utilization
field count 1
field mean 6.4346109434946
field stddev -1.#IND
field sum 6.4346109434946
field sqrsum 41.404217994141
field min 6.4346109434946
field max 6.4346109434946
statistic mcsl_rtp.router23.port[3].sched 	link-utilization
field count 1
field mean 3.6903564644094
field stddev -1.#IND
field sum 3.6903564644094
field sqrsum 13.618730834408
field min 3.6903564644094
field max 3.6903564644094
statistic mcsl_rtp.router24.port[0].sched 	link-utilization
field count 1
field mean 0
field stddev -1.#IND
field sum 0
field sqrsum 0
field min 0
field max 0
statistic mcsl_rtp.router24.port[1].sched 	link-utilization
field count 1
field mean 14.359146273327
field stddev -1.#IND
field sum 14.359146273327
field sqrsum 206.18508169879
field min 14.359146273327
field max 14.359146273327
statistic mcsl_rtp.router24.port[2].sched 	link-utilization
field count 1
field mean 10.016016687153
field stddev -1.#IND
field sum 10.016016687153
field sqrsum 100.32059027733
field min 10.016016687153
field max 10.016016687153
statistic mcsl_rtp.router24.port[3].sched 	link-utilization
field count 1
field mean 0
field stddev -1.#IND
field sum 0
field sqrsum 0
field min 0
field max 0
statistic mcsl_rtp.router25.port[0].sched 	link-utilization
field count 1
field mean 5.0135955600253
field stddev -1.#IND
field sum 5.0135955600253
field sqrsum 25.136140439506
field min 5.0135955600253
field max 5.0135955600253
statistic mcsl_rtp.router25.port[1].sched 	link-utilization
field count 1
field mean 7.4142362275115
field stddev -1.#IND
field sum 7.4142362275115
field sqrsum 54.970898837343
field min 7.4142362275115
field max 7.4142362275115
statistic mcsl_rtp.router25.port[2].sched 	link-utilization
field count 1
field mean 1.4340522218497
field stddev -1.#IND
field sum 1.4340522218497
field sqrsum 2.0565057749922
field min 1.4340522218497
field max 1.4340522218497
statistic mcsl_rtp.router25.port[3].sched 	link-utilization
field count 1
field mean 4.5293701344657
field stddev -1.#IND
field sum 4.5293701344657
field sqrsum 20.51519381499
field min 4.5293701344657
field max 4.5293701344657
statistic mcsl_rtp.router26.port[0].sched 	link-utilization
field count 1
field mean 4.8850895817037
field stddev -1.#IND
field sum 4.8850895817037
field sqrsum 23.86410022127
field min 4.8850895817037
field max 4.8850895817037
statistic mcsl_rtp.router26.port[1].sched 	link-utilization
field count 1
field mean 10.952806645063
field stddev -1.#IND
field sum 10.952806645063
field sqrsum 119.96397340413
field min 10.952806645063
field max 10.952806645063
statistic mcsl_rtp.router26.port[2].sched 	link-utilization
field count 1
field mean 4.3417327820613
field stddev -1.#IND
field sum 4.3417327820613
field sqrsum 18.850643550826
field min 4.3417327820613
field max 4.3417327820613
statistic mcsl_rtp.router26.port[3].sched 	link-utilization
field count 1
field mean 0
field stddev -1.#IND
field sum 0
field sqrsum 0
field min 0
field max 0
statistic mcsl_rtp.router27.port[0].sched 	link-utilization
field count 1
field mean 0
field stddev -1.#IND
field sum 0
field sqrsum 0
field min 0
field max 0
statistic mcsl_rtp.router27.port[1].sched 	link-utilization
field count 1
field mean 0
field stddev -1.#IND
field sum 0
field sqrsum 0
field min 0
field max 0
statistic mcsl_rtp.router27.port[2].sched 	link-utilization
field count 1
field mean 5.6174805378627
field stddev -1.#IND
field sum 5.6174805378627
field sqrsum 31.556087593266
field min 5.6174805378627
field max 5.6174805378627
statistic mcsl_rtp.router27.port[3].sched 	link-utilization
field count 1
field mean 0
field stddev -1.#IND
field sum 0
field sqrsum 0
field min 0
field max 0
statistic mcsl_rtp.router28.port[0].sched 	link-utilization
field count 1
field mean 16.172663612322
field stddev -1.#IND
field sum 16.172663612322
field sqrsum 261.55504831731
field min 16.172663612322
field max 16.172663612322
statistic mcsl_rtp.router28.port[1].sched 	link-utilization
field count 1
field mean 0
field stddev -1.#IND
field sum 0
field sqrsum 0
field min 0
field max 0
statistic mcsl_rtp.router28.port[2].sched 	link-utilization
field count 1
field mean 3.5413640257757
field stddev -1.#IND
field sum 3.5413640257757
field sqrsum 12.541259163058
field min 3.5413640257757
field max 3.5413640257757
statistic mcsl_rtp.router28.port[3].sched 	link-utilization
field count 1
field mean 0
field stddev -1.#IND
field sum 0
field sqrsum 0
field min 0
field max 0
statistic mcsl_rtp.router29.port[0].sched 	link-utilization
field count 1
field mean 3.0562073974746
field stddev -1.#IND
field sum 3.0562073974746
field sqrsum 9.3404036563783
field min 3.0562073974746
field max 3.0562073974746
statistic mcsl_rtp.router29.port[1].sched 	link-utilization
field count 1
field mean 3.3183409691958
field stddev -1.#IND
field sum 3.3183409691958
field sqrsum 11.011386787843
field min 3.3183409691958
field max 3.3183409691958
statistic mcsl_rtp.router29.port[2].sched 	link-utilization
field count 1
field mean 9.2817633255112
field stddev -1.#IND
field sum 9.2817633255112
field sqrsum 86.151130430805
field min 9.2817633255112
field max 9.2817633255112
statistic mcsl_rtp.router29.port[3].sched 	link-utilization
field count 1
field mean 3.0208216932991
field stddev -1.#IND
field sum 3.0208216932991
field sqrsum 9.1253637027062
field min 3.0208216932991
field max 3.0208216932991
statistic mcsl_rtp.router30.port[0].sched 	link-utilization
field count 1
field mean 1.1225649048311
field stddev -1.#IND
field sum 1.1225649048311
field sqrsum 1.2601519655584
field min 1.1225649048311
field max 1.1225649048311
statistic mcsl_rtp.router30.port[1].sched 	link-utilization
field count 1
field mean 0.65091071628115
field stddev -1.#IND
field sum 0.65091071628115
field sqrsum 0.42368476056964
field min 0.65091071628115
field max 0.65091071628115
statistic mcsl_rtp.router30.port[2].sched 	link-utilization
field count 1
field mean 2.8885909040116
field stddev -1.#IND
field sum 2.8885909040116
field sqrsum 8.3439574107387
field min 2.8885909040116
field max 2.8885909040116
statistic mcsl_rtp.router30.port[3].sched 	link-utilization
field count 1
field mean 0
field stddev -1.#IND
field sum 0
field sqrsum 0
field min 0
field max 0
statistic mcsl_rtp.router31.port[0].sched 	link-utilization
field count 1
field mean 7.686147428018
field stddev -1.#IND
field sum 7.686147428018
field sqrsum 59.076862285228
field min 7.686147428018
field max 7.686147428018
statistic mcsl_rtp.router31.port[1].sched 	link-utilization
field count 1
field mean 5.305993220844
field stddev -1.#IND
field sum 5.305993220844
field sqrsum 28.153564059643
field min 5.305993220844
field max 5.305993220844
statistic mcsl_rtp.router31.port[2].sched 	link-utilization
field count 1
field mean 9.1816590308042
field stddev -1.#IND
field sum 9.1816590308042
field sqrsum 84.302862557948
field min 9.1816590308042
field max 9.1816590308042
statistic mcsl_rtp.router31.port[3].sched 	link-utilization
field count 1
field mean 0
field stddev -1.#IND
field sum 0
field sqrsum 0
field min 0
field max 0
statistic mcsl_rtp.router32.port[0].sched 	link-utilization
field count 1
field mean 2.8559988080605
field stddev -1.#IND
field sum 2.8559988080605
field sqrsum 8.1567291916429
field min 2.8559988080605
field max 2.8559988080605
statistic mcsl_rtp.router32.port[1].sched 	link-utilization
field count 1
field mean 0
field stddev -1.#IND
field sum 0
field sqrsum 0
field min 0
field max 0
statistic mcsl_rtp.router32.port[2].sched 	link-utilization
field count 1
field mean 6.7111781577085
field stddev -1.#IND
field sum 6.7111781577085
field sqrsum 45.039912264504
field min 6.7111781577085
field max 6.7111781577085
statistic mcsl_rtp.router32.port[3].sched 	link-utilization
field count 1
field mean 0
field stddev -1.#IND
field sum 0
field sqrsum 0
field min 0
field max 0
statistic mcsl_rtp.router33.port[0].sched 	link-utilization
field count 1
field mean 0
field stddev -1.#IND
field sum 0
field sqrsum 0
field min 0
field max 0
statistic mcsl_rtp.router33.port[1].sched 	link-utilization
field count 1
field mean 0
field stddev -1.#IND
field sum 0
field sqrsum 0
field min 0
field max 0
statistic mcsl_rtp.router33.port[2].sched 	link-utilization
field count 1
field mean 0
field stddev -1.#IND
field sum 0
field sqrsum 0
field min 0
field max 0
statistic mcsl_rtp.router33.port[3].sched 	link-utilization
field count 1
field mean 0
field stddev -1.#IND
field sum 0
field sqrsum 0
field min 0
field max 0
statistic mcsl_rtp.router34.port[0].sched 	link-utilization
field count 1
field mean 0
field stddev -1.#IND
field sum 0
field sqrsum 0
field min 0
field max 0
statistic mcsl_rtp.router34.port[1].sched 	link-utilization
field count 1
field mean 0
field stddev -1.#IND
field sum 0
field sqrsum 0
field min 0
field max 0
statistic mcsl_rtp.router34.port[2].sched 	link-utilization
field count 1
field mean 2.8885909040116
field stddev -1.#IND
field sum 2.8885909040116
field sqrsum 8.3439574107387
field min 2.8885909040116
field max 2.8885909040116
statistic mcsl_rtp.router34.port[3].sched 	link-utilization
field count 1
field mean 0
field stddev -1.#IND
field sum 0
field sqrsum 0
field min 0
field max 0
statistic mcsl_rtp.router35.port[0].sched 	link-utilization
field count 1
field mean 1.7734756211122
field stddev -1.#IND
field sum 1.7734756211122
field sqrsum 3.1452157786794
field min 1.7734756211122
field max 1.7734756211122
statistic mcsl_rtp.router35.port[1].sched 	link-utilization
field count 1
field mean 0
field stddev -1.#IND
field sum 0
field sqrsum 0
field min 0
field max 0
statistic mcsl_rtp.router35.port[2].sched 	link-utilization
field count 1
field mean 0
field stddev -1.#IND
field sum 0
field sqrsum 0
field min 0
field max 0
statistic mcsl_rtp.router35.port[3].sched 	link-utilization
field count 1
field mean 0
field stddev -1.#IND
field sum 0
field sqrsum 0
field min 0
field max 0
statistic mcsl_rtp.router36.port[0].sched 	link-utilization
field count 1
field mean 13.129958654598
field stddev -1.#IND
field sum 13.129958654598
field sqrsum 172.39581427146
field min 13.129958654598
field max 13.129958654598
statistic mcsl_rtp.router36.port[1].sched 	link-utilization
field count 1
field mean 0
field stddev -1.#IND
field sum 0
field sqrsum 0
field min 0
field max 0
statistic mcsl_rtp.router36.port[2].sched 	link-utilization
field count 1
field mean 0
field stddev -1.#IND
field sum 0
field sqrsum 0
field min 0
field max 0
statistic mcsl_rtp.router36.port[3].sched 	link-utilization
field count 1
field mean 4.3417327820613
field stddev -1.#IND
field sum 4.3417327820613
field sqrsum 18.850643550826
field min 4.3417327820613
field max 4.3417327820613
statistic mcsl_rtp.router37.port[0].sched 	link-utilization
field count 1
field mean 0
field stddev -1.#IND
field sum 0
field sqrsum 0
field min 0
field max 0
statistic mcsl_rtp.router37.port[1].sched 	link-utilization
field count 1
field mean 0
field stddev -1.#IND
field sum 0
field sqrsum 0
field min 0
field max 0
statistic mcsl_rtp.router37.port[2].sched 	link-utilization
field count 1
field mean 0
field stddev -1.#IND
field sum 0
field sqrsum 0
field min 0
field max 0
statistic mcsl_rtp.router37.port[3].sched 	link-utilization
field count 1
field mean 0
field stddev -1.#IND
field sum 0
field sqrsum 0
field min 0
field max 0
statistic mcsl_rtp.router38.port[0].sched 	link-utilization
field count 1
field mean 0
field stddev -1.#IND
field sum 0
field sqrsum 0
field min 0
field max 0
statistic mcsl_rtp.router38.port[1].sched 	link-utilization
field count 1
field mean 1.7734756211122
field stddev -1.#IND
field sum 1.7734756211122
field sqrsum 3.1452157786794
field min 1.7734756211122
field max 1.7734756211122
statistic mcsl_rtp.router38.port[2].sched 	link-utilization
field count 1
field mean 0
field stddev -1.#IND
field sum 0
field sqrsum 0
field min 0
field max 0
statistic mcsl_rtp.router38.port[3].sched 	link-utilization
field count 1
field mean 4.5293701344657
field stddev -1.#IND
field sum 4.5293701344657
field sqrsum 20.51519381499
field min 4.5293701344657
field max 4.5293701344657
statistic mcsl_rtp.router39.port[0].sched 	link-utilization
field count 1
field mean 0
field stddev -1.#IND
field sum 0
field sqrsum 0
field min 0
field max 0
statistic mcsl_rtp.router39.port[1].sched 	link-utilization
field count 1
field mean 0
field stddev -1.#IND
field sum 0
field sqrsum 0
field min 0
field max 0
statistic mcsl_rtp.router39.port[2].sched 	link-utilization
field count 1
field mean 0
field stddev -1.#IND
field sum 0
field sqrsum 0
field min 0
field max 0
statistic mcsl_rtp.router39.port[3].sched 	link-utilization
field count 1
field mean 0
field stddev -1.#IND
field sum 0
field sqrsum 0
field min 0
field max 0
statistic mcsl_rtp.router40.port[0].sched 	link-utilization
field count 1
field mean 0
field stddev -1.#IND
field sum 0
field sqrsum 0
field min 0
field max 0
statistic mcsl_rtp.router40.port[1].sched 	link-utilization
field count 1
field mean 10.241367750587
field stddev -1.#IND
field sum 10.241367750587
field sqrsum 104.88561340276
field min 10.241367750587
field max 10.241367750587
statistic mcsl_rtp.router41.port[0].sched 	link-utilization
field count 1
field mean 4.3417327820613
field stddev -1.#IND
field sum 4.3417327820613
field sqrsum 18.850643550826
field min 4.3417327820613
field max 4.3417327820613
statistic mcsl_rtp.router41.port[1].sched 	link-utilization
field count 1
field mean 0
field stddev -1.#IND
field sum 0
field sqrsum 0
field min 0
field max 0
statistic mcsl_rtp.router42.port[0].sched 	link-utilization
field count 1
field mean 0
field stddev -1.#IND
field sum 0
field sqrsum 0
field min 0
field max 0
statistic mcsl_rtp.router42.port[1].sched 	link-utilization
field count 1
field mean 0
field stddev -1.#IND
field sum 0
field sqrsum 0
field min 0
field max 0
statistic mcsl_rtp.router43.port[0].sched 	link-utilization
field count 1
field mean 0
field stddev -1.#IND
field sum 0
field sqrsum 0
field min 0
field max 0
statistic mcsl_rtp.router43.port[1].sched 	link-utilization
field count 1
field mean 0
field stddev -1.#IND
field sum 0
field sqrsum 0
field min 0
field max 0
statistic mcsl_rtp.router44.port[0].sched 	link-utilization
field count 1
field mean 0
field stddev -1.#IND
field sum 0
field sqrsum 0
field min 0
field max 0
statistic mcsl_rtp.router44.port[1].sched 	link-utilization
field count 1
field mean 0.6853652177152
field stddev -1.#IND
field sum 0.6853652177152
field sqrsum 0.4697254816538
field min 0.6853652177152
field max 0.6853652177152
statistic mcsl_rtp.router45.port[0].sched 	link-utilization
field count 1
field mean 4.5293701344657
field stddev -1.#IND
field sum 4.5293701344657
field sqrsum 20.51519381499
field min 4.5293701344657
field max 4.5293701344657
statistic mcsl_rtp.router45.port[1].sched 	link-utilization
field count 1
field mean 0
field stddev -1.#IND
field sum 0
field sqrsum 0
field min 0
field max 0
statistic mcsl_rtp.router46.port[0].sched 	link-utilization
field count 1
field mean 0
field stddev -1.#IND
field sum 0
field sqrsum 0
field min 0
field max 0
statistic mcsl_rtp.router46.port[1].sched 	link-utilization
field count 1
field mean 0
field stddev -1.#IND
field sum 0
field sqrsum 0
field min 0
field max 0
statistic mcsl_rtp.router47.port[0].sched 	link-utilization
field count 1
field mean 0
field stddev -1.#IND
field sum 0
field sqrsum 0
field min 0
field max 0
statistic mcsl_rtp.router47.port[1].sched 	link-utilization
field count 1
field mean 0
field stddev -1.#IND
field sum 0
field sqrsum 0
field min 0
field max 0
